version 2
run Program2-0-20220624-01:30:48-11856
attr configname Program2
attr datetime 20220624-01:30:48
attr experiment Program2
attr inifile omnetpp.ini
attr iterationvars ""
attr iterationvarsf ""
attr measurement ""
attr network FinalProjectNetwork
attr processid 11856
attr repetition 0
attr replication #0
attr resultdir results
attr runnumber 0
attr seedset 0
param *.rsu[0].mobility.x 35
param *.rsu[0].mobility.y 210
param *.rsu[0].mobility.z 3
param *.rsu[1].mobility.x 215
param *.rsu[1].mobility.y 210
param *.rsu[1].mobility.z 3
param *.rsu[2].mobility.x 135
param *.rsu[2].mobility.y 210
param *.rsu[2].mobility.z 3
param *.rsu[3].mobility.x 215
param *.rsu[3].mobility.y 135
param *.rsu[3].mobility.z 3
param *.playgroundSizeX 300m
param *.playgroundSizeY 600m
param *.playgroundSizeZ 50m
param *.annotations.draw true
param *.obstacles.obstacles "xmldoc(\"config.xml\", \"//AnalogueModel[@type='SimpleObstacleShadowing']/obstacles\")"
param *.manager.updateInterval 0.5s
param *.manager.host "\"localhost\""
param *.manager.port 9999
param *.manager.autoShutdown true
param *.manager.launchConfig "xmldoc(\"streettest.launchd.xml\")"
param *.rsu[0].mobility.x 35
param *.rsu[0].mobility.y 135
param *.rsu[0].mobility.z 3
param *.rsu[1].mobility.x 135
param *.rsu[1].mobility.y 40
param *.rsu[1].mobility.z 3
param *.rsu[2].mobility.x 135
param *.rsu[2].mobility.y 210
param *.rsu[2].mobility.z 3
param *.rsu[3].mobility.x 215
param *.rsu[3].mobility.y 135
param *.rsu[3].mobility.z 3
param *.rsu[*].applType "\"RsuApp\""
param *.rsu[*].appl.headerLength "80 bit"
param *.rsu[*].appl.sendBeacons false
param *.rsu[*].appl.dataOnSch false
param *.rsu[*].appl.beaconInterval 1s
param *.rsu[*].appl.beaconUserPriority 7
param *.rsu[*].appl.dataUserPriority 5
param *.rsu[*].nic.phy80211p.antennaOffsetZ "0 m"
param *.connectionManager.sendDirect true
param *.connectionManager.maxInterfDist 2600m
param *.connectionManager.drawMaxIntfDist false
param *.**.nic.mac1609_4.useServiceChannel false
param *.**.nic.mac1609_4.txPower 80mW
param *.**.nic.mac1609_4.bitrate 6Mbps
param *.**.nic.phy80211p.minPowerLevel -110dBm
param *.**.nic.phy80211p.useNoiseFloor true
param *.**.nic.phy80211p.noiseFloor -98dBm
param *.**.nic.phy80211p.decider "xmldoc(\"config.xml\")"
param *.**.nic.phy80211p.analogueModels "xmldoc(\"config.xml\")"
param *.**.nic.phy80211p.usePropagationDelay true
param *.**.nic.phy80211p.antenna "xmldoc(\"antenna.xml\", \"/root/Antenna[@id='monopole']\")"
param *.node[*].nic.phy80211p.antennaOffsetY "0 m"
param *.node[*].nic.phy80211p.antennaOffsetZ "1.895 m"
param *.node[*].applType "\"VehicleApp\""
param *.node[*].appl.headerLength "80 bit"
param *.node[*].appl.sendBeacons false
param *.node[*].appl.dataOnSch false
param *.node[*].appl.beaconInterval 1s
param *.node[*].veinsmobility.x 0
param *.node[*].veinsmobility.y 0
param *.node[*].veinsmobility.z 0
param *.node[*].veinsmobility.setHostSpeed false
param *.node[*0].veinsmobility.accidentCount 1
param *.node[*0].veinsmobility.accidentStart 23s
param *.node[*0].veinsmobility.accidentDuration 50s

vector 0 FinalProjectNetwork.node[0].veinsmobility posx ETV
vector 1 FinalProjectNetwork.node[0].veinsmobility posy ETV
vector 2 FinalProjectNetwork.node[0].veinsmobility speed ETV
vector 3 FinalProjectNetwork.node[0].veinsmobility acceleration ETV
vector 4 FinalProjectNetwork.node[0].veinsmobility co2emission ETV
vector 5 FinalProjectNetwork.node[1].veinsmobility posx ETV
vector 6 FinalProjectNetwork.node[1].veinsmobility posy ETV
vector 7 FinalProjectNetwork.node[1].veinsmobility speed ETV
vector 8 FinalProjectNetwork.node[1].veinsmobility acceleration ETV
vector 9 FinalProjectNetwork.node[1].veinsmobility co2emission ETV
vector 10 FinalProjectNetwork.node[2].veinsmobility posx ETV
vector 11 FinalProjectNetwork.node[2].veinsmobility posy ETV
vector 12 FinalProjectNetwork.node[2].veinsmobility speed ETV
vector 13 FinalProjectNetwork.node[2].veinsmobility acceleration ETV
vector 14 FinalProjectNetwork.node[2].veinsmobility co2emission ETV
vector 15 FinalProjectNetwork.node[3].veinsmobility posx ETV
vector 16 FinalProjectNetwork.node[3].veinsmobility posy ETV
vector 17 FinalProjectNetwork.node[3].veinsmobility speed ETV
vector 18 FinalProjectNetwork.node[3].veinsmobility acceleration ETV
vector 19 FinalProjectNetwork.node[3].veinsmobility co2emission ETV
vector 20 FinalProjectNetwork.node[4].veinsmobility posx ETV
vector 21 FinalProjectNetwork.node[4].veinsmobility posy ETV
vector 22 FinalProjectNetwork.node[4].veinsmobility speed ETV
vector 23 FinalProjectNetwork.node[4].veinsmobility acceleration ETV
vector 24 FinalProjectNetwork.node[4].veinsmobility co2emission ETV
9	30	14.5	2.9349795219762
9	31	15	3.5074952561488
9	32	15.5	3.9477151445854
9	33	16	4.474732928552
9	34	16.5	4.8271742914276
9	35	17	5.241421018451
9	36	17.5	5.7217410341011
9	37	18	6.7861773578961
9	38	18.5	6.4371772680011
9	39	19	7.8827618571635
9	40	19.5	8.2784761634333
9	41	20	8.0234540008099
9	42	20.5	1.7386690760218
9	43	21	1.8709806868957
9	44	21.5	2.0285831635959
9	45	22	2.5697894042095
9	46	22.5	2.1960886274329
9	47	23	1.6786753912085
9	49	23.5	1.6770073895274
9	50	24	2.2267670060462
9	51	24.5	2.0020299922807
9	52	25	1.9998992939473
9	53	25.5	2.1086310655384
9	54	26	2.2962156924904
9	55	26.5	1.7298651424316
9	56	27	2.3366524020802
9	57	27.5	2.0961006153259
9	58	28	1.9989132409846
9	59	28.5	1.9019939096237
9	60	29	0.973
9	61	29.5	0.973
9	62	30	0.973
9	63	30.5	0.973
9	162	31	0.973
9	163	31.5	1.5990507574895
9	164	32	4.0308682047353
9	165	32.5	4.3391237576722
9	231	33	4.6441578306687
9	232	33.5	4.7898918459395
9	233	34	5.8204604298565
9	234	34.5	6.2562211661556
9	287	35	6.4182246926132
9	288	35.5	0.973
9	289	36	0.973
9	290	36.5	0.973
9	291	37	0.973
9	292	37.5	0.973
9	293	38	0.973
9	294	38.5	0.973
9	295	39	0.973
9	296	39.5	0.973
9	297	40	0.973
9	298	40.5	0.973
9	299	41	0.973
9	300	41.5	0.973
9	301	42	0.973
9	302	42.5	1.1116448499575
9	389	43	1.1113019051158
9	390	43.5	1.110894956224
9	391	44	1.1105600010952
9	392	44.5	1.1103497277118
9	449	45	1.1102076440749
9	450	45.5	1.1101269569767
9	451	46	1.110074118425
9	452	46.5	1.110044614769
9	453	47	1.1100272537889
9	454	47.5	1.1100167334619
9	455	48	1.1100096642411
9	456	48.5	1.1100059121349
9	457	49	1.1100035716701
9	458	49.5	1.1100021255033
9	459	50	1.1100012985942
9	460	50.5	1.1100007570117
9	461	51	0.973
9	462	51.5	0.973
9	463	52	0.973
9	464	52.5	0.973
9	555	53	0.973
9	556	53.5	0.973
9	557	54	0.973
9	558	54.5	0.973
9	619	55	0.973
9	620	55.5	0.973
9	621	56	0.973
9	622	56.5	0.973
9	623	57	0.973
9	624	57.5	0.973
9	625	58	0.973
9	626	58.5	0.973
9	627	59	0.973
9	628	59.5	0.973
9	629	60	0.973
9	630	60.5	0.973
9	631	61	0.973
9	632	61.5	0.973
9	633	62	0.973
9	634	62.5	0.973
9	637	63	0.973
9	638	63.5	0.973
9	639	64	0.973
9	640	64.5	0.973
9	643	65	0.973
9	644	65.5	0.973
9	645	66	0.973
9	646	66.5	0.973
9	647	67	0.973
9	648	67.5	0.973
9	649	68	0.973
9	650	68.5	0.973
9	651	69	0.973
9	652	69.5	0.973
9	653	70	0.973
9	750	70.5	0.973
9	751	71	0.973
9	752	71.5	0.973
9	753	72	0.973
9	754	72.5	0.973
9	755	73	0.973
9	757	73.5	1.1538487189685
9	758	74	1.5544494214459
9	759	74.5	1.9715100089348
9	760	75	2.2824059760705
9	761	75.5	2.994632775045
9	762	76	2.9080939717119
9	763	76.5	3.8465729876946
9	764	77	4.6181267253872
9	765	77.5	4.8722595315734
9	766	78	5.3220433968583
9	767	78.5	6.6106238141642
9	768	79	6.6786798792839
9	769	79.5	0.973
9	770	80	0.973
9	771	80.5	1.3648080751388
9	772	81	0.973
9	773	81.5	2.375822233502
9	774	82	4.7603971004996
9	775	82.5	5.4792324281792
9	776	83	5.603974011425
9	777	83.5	6.0970633870844
9	778	84	7.9503101869175
9	779	84.5	7.9562568078621
9	780	85	9.1331009278298
9	781	85.5	4.000895064924
9	782	86	2.3698810326457
9	783	86.5	1.9027824787722
9	784	87	0.973
9	785	87.5	0.973
9	786	88	0.973
9	787	88.5	0.973
9	788	89	0.973
9	789	89.5	5.8369821208602
9	790	90	5.8753444434466
9	791	90.5	6.5285988113094
9	792	91	7.4443788837125
9	793	91.5	6.8271722931593
9	794	92	8.2705390857195
9	795	92.5	8.7948067478904
9	796	93	2.2293361992237
9	797	93.5	2.0409359337747
9	798	94	1.526155584502
9	799	94.5	1.8743888658969
9	800	95	2.3156479184714
9	801	95.5	2.4092078994017
9	802	96	0.973
9	803	96.5	0.973
9	804	97	0.973
9	805	97.5	0.973
9	806	98	0.973
9	807	98.5	0.973
9	808	99	1.4729022832252
8	30	14.5	2.177202455463
8	31	15	2.134991405881
8	32	15.5	2.0272602403816
8	33	16	2.0124203733169
8	34	16.5	1.9147015828313
8	35	17	1.8746040408872
8	36	17.5	1.8714591467148
8	37	18	2.083296697191
8	38	18.5	1.7593073380226
8	39	19	2.0750161773246
8	40	19.5	2.0115589458356
8	41	20	1.781154732495
8	42	20.5	-0.086789174312724
8	43	21	-0.046688792021016
8	44	21.5	0.00039875816554158
8	45	22	0.15878834552132
8	46	22.5	0.046964939730241
8	47	23	-0.10530462047551
8	49	23.5	-0.10460751224775
8	50	24	0.058673559366724
8	51	24.5	-0.008225661022589
8	52	25	-0.0087313797045496
8	53	25.5	0.023340358412824
8	54	26	0.07786693693139
8	55	26.5	-0.089451699010098
8	56	27	0.089881772734223
8	57	27.5	0.018074884098024
8	58	28	-0.010644329893402
8	59	28.5	-0.038915862790308
8	60	29	-3.9229160898997
8	61	29.5	-4.4539411718678
8	62	30	-4.5
8	63	30.5	-4.4463358986665
8	162	31	-2.5503092275275
8	163	31.5	0.28282367606182
8	164	32	2.1183426137548
8	165	32.5	1.9530669275392
8	231	33	1.8450104637258
8	232	33.5	1.6959877776727
8	233	34	1.9579783379985
8	234	34.5	1.921279906542
8	287	35	1.7967001924524
8	288	35.5	-1.6065092729651
8	289	36	-2.9858581600815
8	290	36.5	-2.871549490483
8	291	37	-2.7355837139397
8	292	37.5	-2.6194331747151
8	293	38	-2.0643387495535
8	294	38.5	-1.9350022865241
8	295	39	-1.4780166116833
8	296	39.5	-1.0328137301508
8	297	40	-0.84389003889658
8	298	40.5	-0.51445759435318
8	299	41	-0.34636333640381
8	300	41.5	-0.21881613514904
8	301	42	-0.12728807825815
8	302	42.5	-0.082401638411138
8	389	43	-0.0458821378696
8	390	43.5	-0.027110778214771
8	391	44	-0.017478453644792
8	392	44.5	-0.010163489984489
8	449	45	-0.0063827415789969
8	450	45.5	-0.0035341832461903
8	451	46	-0.0022503189165725
8	452	46.5	-0.0012465508092193
8	453	47	-0.00072724641017135
8	454	47.5	-0.0004387623074984
8	455	48	-0.0002940200857845
8	456	48.5	-0.0001559582378026
8	457	49	-9.7153417647813e-05
8	458	49.5	-6.0002647981241e-05
8	459	50	-3.4300324012999e-05
8	460	50.5	-2.2459373904196e-05
8	461	51	-3.1388751303445e-05
8	462	51.5	0
8	463	52	0
8	464	52.5	0
8	555	53	0
8	556	53.5	0
8	557	54	0
8	558	54.5	0
8	619	55	0
8	620	55.5	0
8	621	56	0
8	622	56.5	0
8	623	57	0
8	624	57.5	0
8	625	58	0
8	626	58.5	0
8	627	59	0
8	628	59.5	0
8	629	60	0
8	630	60.5	0
8	631	61	0
8	632	61.5	0
8	633	62	0
8	634	62.5	0
8	637	63	0
8	638	63.5	0
8	639	64	0
8	640	64.5	0
8	643	65	0
8	644	65.5	0
8	645	66	0
8	646	66.5	0
8	647	67	0
8	648	67.5	0
8	649	68	0
8	650	68.5	0
8	651	69	0
8	652	69.5	0
8	653	70	0
8	750	70.5	0
8	751	71	0
8	752	71.5	0
8	753	72	0
8	754	72.5	0
8	755	73	0
8	757	73.5	0.51138538670734
8	758	74	1.5708084040401
8	759	74.5	1.6925127292086
8	760	75	1.605462479736
8	761	75.5	1.9332559322929
8	762	76	1.4878420101695
8	763	76.5	1.9092089930642
8	764	77	2.063322735508
8	765	77.5	1.9060492313188
8	766	78	1.8838621007605
8	767	78.5	2.1990238013398
8	768	79	1.985867367303
8	769	79.5	-2.6106849603551
8	770	80	-4.5
8	771	80.5	-0.062066421695059
8	772	81	-0.17640229356941
8	773	81.5	0.53509097074158
8	774	82	1.7124482278759
8	775	82.5	1.8435883101635
8	776	83	1.7071612545149
8	777	83.5	1.7349621621566
8	778	84	2.2022382599348
8	779	84.5	1.9997338576615
8	780	85	2.1671350573376
8	781	85.5	0.58558268603517
8	782	86	0.098379294793123
8	783	86.5	-0.039586514257827
8	784	87	-0.49335865810294
8	785	87.5	-4.3441837645947
8	786	88	-4.5
8	787	88.5	-4.4867207136739
8	788	89	-0.24
8	789	89.5	2.2123982076533
8	790	90	1.9591214913968
8	791	90.5	2.0033050640346
8	792	91	2.1227823837101
8	793	91.5	1.7294712568028
8	794	92	2.0265738051292
8	795	92.5	2.0073201831976
8	796	93	0.056468813344836
8	797	93.5	0.00061926393769696
8	798	94	-0.15048173059709
8	799	94.5	-0.04608975974843
8	800	95	0.084083400177771
8	801	95.5	0.10982031560969
8	802	96	-3.3183394749463
8	803	96.5	-4.5
8	804	97	-4.4508440241409
8	805	97.5	-1.66
8	806	98	-0.41821342874375
8	807	98.5	-0.18745125107467
8	808	99	0.0060562747251236
7	29	14	2.0914703948882
7	30	14.5	3.1800716226197
7	31	15	4.2475673255602
7	32	15.5	5.261197445751
7	33	16	6.2674076324094
7	34	16.5	7.2247584238251
7	35	17	8.1620604442687
7	36	17.5	9.097790017626
7	37	18	10.139438366222
7	38	18.5	11.019092035233
7	39	19	12.056600123895
7	40	19.5	13.062379596813
7	41	20	13.95295696306
7	42	20.5	13.909562375904
7	43	21	13.886217979894
7	44	21.5	13.886417358976
7	45	22	13.965811531737
7	46	22.5	13.989294001602
7	47	23	13.936641691364
7	49	23.5	13.88433793524
7	50	24	13.913674714924
7	51	24.5	13.909561884413
7	52	25	13.90519619456
7	53	25.5	13.916866373767
7	54	26	13.955799842232
7	55	26.5	13.911073992727
7	56	27	13.956014879094
7	57	27.5	13.965052321143
7	58	28	13.959730156197
7	59	28.5	13.940272224802
7	60	29	11.978814179852
7	61	29.5	9.7518435939179
7	62	30	7.5018435939179
7	63	30.5	5.2786756445846
7	162	31	4.0035210308209
7	163	31.5	4.1449328688518
7	164	32	5.2041041757292
7	165	32.5	6.1806376394988
7	231	33	7.1031428713616
7	232	33.5	7.951136760198
7	233	34	8.9301259291973
7	234	34.5	9.8907658824683
7	287	35	10.789115978694
7	288	35.5	9.9858613422119
7	289	36	8.4929322621712
7	290	36.5	7.0571575169297
7	291	37	5.6893656599598
7	292	37.5	4.3796490726022
7	293	38	3.3474796978255
7	294	38.5	2.3799785545634
7	295	39	1.6409702487217
7	296	39.5	1.1245633836463
7	297	40	0.70261836419803
7	298	40.5	0.44538956702144
7	299	41	0.27220789881953
7	300	41.5	0.16279983124501
7	301	42	0.099155792115937
7	302	42.5	0.057954972910369
7	389	43	0.035013903975569
7	390	43.5	0.021458514868183
7	391	44	0.012719288045787
7	392	44.5	0.0076375430535428
7	449	45	0.0044461722640443
7	450	45.5	0.0026790806409492
7	451	46	0.0015539211826629
7	452	46.5	0.00093064577805327
7	453	47	0.0005670225729676
7	454	47.5	0.0003476414192184
7	455	48	0.00020063137632615
7	456	48.5	0.00012265225742485
7	457	49	7.407554860094e-05
7	458	49.5	4.407422461032e-05
7	459	50	2.6924062603821e-05
7	460	50.5	1.5694375651723e-05
7	461	51	0
7	462	51.5	0
7	463	52	0
7	464	52.5	0
7	555	53	0
7	556	53.5	0
7	557	54	0
7	558	54.5	0
7	619	55	0
7	620	55.5	0
7	621	56	0
7	622	56.5	0
7	623	57	0
7	624	57.5	0
7	625	58	0
7	626	58.5	0
7	627	59	0
7	628	59.5	0
7	629	60	0
7	630	60.5	0
7	631	61	0
7	632	61.5	0
7	633	62	0
7	634	62.5	0
7	637	63	0
7	638	63.5	0
7	639	64	0
7	640	64.5	0
7	643	65	0
7	644	65.5	0
7	645	66	0
7	646	66.5	0
7	647	67	0
7	648	67.5	0
7	649	68	0
7	650	68.5	0
7	651	69	0
7	652	69.5	0
7	653	70	0
7	750	70.5	0
7	751	71	0
7	752	71.5	0
7	753	72	0
7	754	72.5	0
7	755	73	0
7	757	73.5	0.25569269335367
7	758	74	1.0410968953737
7	759	74.5	1.887353259978
7	760	75	2.690084499846
7	761	75.5	3.6567124659925
7	762	76	4.4006334710773
7	763	76.5	5.3552379676094
7	764	77	6.3868993353634
7	765	77.5	7.3399239510227
7	766	78	8.281855001403
7	767	78.5	9.3813669020729
7	768	79	10.374300585724
7	769	79.5	9.0689581055468
7	770	80	6.8189581055468
7	771	80.5	6.7879248946993
7	772	81	6.6997237479146
7	773	81.5	6.9672692332853
7	774	82	7.8234933472233
7	775	82.5	8.745287502305
7	776	83	9.5988681295625
7	777	83.5	10.466349210641
7	778	84	11.567468340608
7	779	84.5	12.567335269439
7	780	85	13.650902798108
7	781	85.5	13.943694141125
7	782	86	13.992883788522
7	783	86.5	13.973090531393
7	784	87	13.726411202341
7	785	87.5	11.554319320044
7	786	88	9.3043193200441
7	787	88.5	7.0609589632072
7	788	89	6.9409589632072
7	789	89.5	8.0471580670338
7	790	90	9.0267188127322
7	791	90.5	10.02837134475
7	792	91	11.089762536605
7	793	91.5	11.954498165006
7	794	92	12.967785067571
7	795	92.5	13.971445159169
7	796	93	13.999679565842
7	797	93.5	13.999989197811
7	798	94	13.924748332512
7	799	94.5	13.901703452638
7	800	95	13.943745152727
7	801	95.5	13.998655310532
7	802	96	12.339485573058
7	803	96.5	10.089485573058
7	804	97	7.864063560988
7	805	97.5	7.034063560988
7	806	98	6.8249568466161
7	807	98.5	6.7312312210788
7	808	99	6.7342593584414
6	28	13.5	26.6
6	29	14	26.6
6	30	14.5	26.6
6	31	15	26.6
6	32	15.5	26.6
6	33	16	26.6
6	34	16.5	26.6
6	35	17	26.6
6	36	17.5	26.6
6	37	18	26.6
6	38	18.5	26.6
6	39	19	26.6
6	40	19.5	26.6
6	41	20	26.6
6	42	20.5	26.6
6	43	21	26.6
6	44	21.5	26.6
6	45	22	26.6
6	46	22.5	26.6
6	47	23	26.6
6	49	23.5	26.6
6	50	24	26.6
6	51	24.5	26.6
6	52	25	26.6
6	53	25.5	26.6
6	54	26	26.6
6	55	26.5	26.6
6	56	27	26.6
6	57	27.5	26.6
6	58	28	26.6
6	59	28.5	26.6
6	60	29	26.6
6	61	29.5	26.6
6	62	30	26.6
6	63	30.5	26.6
6	162	31	26.955398627581
6	163	31.5	28.85437757677
6	164	32	31.242714941401
6	165	32.5	34.142304270014
6	231	33	37.514975871351
6	232	33.5	41.310111678273
6	233	34	45.581712205045
6	234	34.5	50.331272951701
6	287	35	55.560304063009
6	288	35.5	60.857687383079
6	289	36	65.401295867267
6	290	36.5	69.199458011198
6	291	37	72.292316903984
6	292	37.5	74.737363145391
6	293	38	76.615043281822
6	294	38.5	77.994626228091
6	295	39	78.961456879061
6	296	39.5	79.632869897911
6	297	40	80.067137129038
6	298	40.5	80.341339946374
6	299	41	80.510999889769
6	300	41.5	80.612328401909
6	301	42	80.673997653256
6	302	42.5	80.71028814096
6	389	43	80.731899716652
6	390	43.5	80.745220097859
6	391	44	80.753110751927
6	392	44.5	80.757762971103
6	449	45	80.76054783979
6	450	45.5	80.762221080166
6	451	46	80.763209058563
6	452	46.5	80.763796668329
6	453	47	80.76414692307
6	454	47.5	80.764363140708
6	455	48	80.764491978029
6	456	48.5	80.764568337416
6	457	49	80.76461411002
6	458	49.5	80.764641228927
6	459	50	80.764657794776
6	460	50.5	80.76466762162
6	461	51	80.764672495049
6	462	51.5	80.764672495049
6	463	52	80.764672495049
6	464	52.5	80.764672495049
6	555	53	80.764672495049
6	556	53.5	80.764672495049
6	557	54	80.764672495049
6	558	54.5	80.764672495049
6	619	55	80.764672495049
6	620	55.5	80.764672495049
6	621	56	80.764672495049
6	622	56.5	80.764672495049
6	623	57	80.764672495049
6	624	57.5	80.764672495049
6	625	58	80.764672495049
6	626	58.5	80.764672495049
6	627	59	80.764672495049
6	628	59.5	80.764672495049
6	629	60	80.764672495049
6	630	60.5	80.764672495049
6	631	61	80.764672495049
6	632	61.5	80.764672495049
6	633	62	80.764672495049
6	634	62.5	80.764672495049
6	637	63	80.764672495049
6	638	63.5	80.764672495049
6	639	64	80.764672495049
6	640	64.5	80.764672495049
6	643	65	80.764672495049
6	644	65.5	80.764672495049
6	645	66	80.764672495049
6	646	66.5	80.764672495049
6	647	67	80.764672495049
6	648	67.5	80.764672495049
6	649	68	80.764672495049
6	650	68.5	80.764672495049
6	651	69	80.764672495049
6	652	69.5	80.764672495049
6	653	70	80.764672495049
6	750	70.5	80.764672495049
6	751	71	80.764672495049
6	752	71.5	80.764672495049
6	753	72	80.764672495049
6	754	72.5	80.764672495049
6	755	73	80.764672495049
6	757	73.5	80.816478550852
6	758	74	81.166208984034
6	759	74.5	81.941485993665
6	760	75	83.132167116288
6	761	75.5	84.747266540479
6	762	76	86.780297966616
6	763	76.5	89.268522728945
6	764	77	92.237254204657
6	765	77.5	95.703018529218
6	766	78	99.653758375469
6	767	78.5	104.14324228626
6	768	79	109.12208119103
6	769	79.5	114.06790982266
6	770	80	117.9261282971
6	771	80.5	121.14266257966
6	772	81	123.09740765953
6	773	81.5	123.4
6	774	82	123.4
6	775	82.5	123.4
6	776	83	123.4
6	777	83.5	123.4
6	778	84	123.4
6	779	84.5	123.4
6	780	85	123.4
6	781	85.5	123.4
6	782	86	123.4
6	783	86.5	123.4
6	784	87	123.4
6	785	87.5	123.4
6	786	88	123.4
6	787	88.5	123.4
6	788	89	123.4
6	789	89.5	123.4
6	790	90	123.4
6	791	90.5	123.4
6	792	91	123.4
6	793	91.5	123.4
6	794	92	123.4
6	795	92.5	123.4
6	796	93	123.4
6	797	93.5	123.4
6	798	94	123.4
6	799	94.5	123.4
6	800	95	123.4
6	801	95.5	123.4
6	802	96	123.4
6	803	96.5	123.4
6	804	97	123.4
6	805	97.5	123.4
6	806	98	123.32187808618
6	807	98.5	122.30009863631
6	808	99	119.49365851122
5	28	13.5	33.047096229122
5	29	14	33.895663492897
5	30	14.5	35.251805551984
5	31	15	37.161429179321
5	32	15.5	39.571821779568
5	33	16	42.512890981157
5	34	16.5	45.950342066074
5	35	17	49.844283268203
5	36	17.5	54.2125483622
5	37	18	59.056664868539
5	38	18.5	64.400929211274
5	39	19	70.207090318934
5	40	19.5	76.532671439918
5	41	20	83.371518694105
5	42	20.5	90.340139786063
5	43	21	97.30315357851
5	44	21.5	104.27306580472
5	45	22	111.24007753599
5	46	22.5	118.22445724929
5	47	23	125.19705802044
5	49	23.5	132.15024107146
5	50	24	139.11483526593
5	51	24.5	146.08684900921
5	52	25	153.06207830903
5	53	25.5	160.03811817884
5	54	26	167.01262251404
5	55	26.5	173.98414693374
5	56	27	180.94709705308
5	57	27.5	187.91486752084
5	58	28	194.89225667414
5	59	28.5	201.86045287264
5	60	29	208.28016219951
5	61	29.5	213.59687223085
5	62	30	217.7977940278
5	63	30.5	220.87720016693
5	162	31	222.9256643793
5	163	31.5	223.4
5	164	32	223.4
5	165	32.5	223.4
5	231	33	223.4
5	232	33.5	223.4
5	233	34	223.4
5	234	34.5	223.4
5	287	35	223.4
5	288	35.5	223.4
5	289	36	223.4
5	290	36.5	223.4
5	291	37	223.4
5	292	37.5	223.4
5	293	38	223.4
5	294	38.5	223.4
5	295	39	223.4
5	296	39.5	223.4
5	297	40	223.4
5	298	40.5	223.4
5	299	41	223.4
5	300	41.5	223.4
5	301	42	223.4
5	302	42.5	223.4
5	389	43	223.4
5	390	43.5	223.4
5	391	44	223.4
5	392	44.5	223.4
5	449	45	223.4
5	450	45.5	223.4
5	451	46	223.4
5	452	46.5	223.4
5	453	47	223.4
5	454	47.5	223.4
5	455	48	223.4
5	456	48.5	223.4
5	457	49	223.4
5	458	49.5	223.4
5	459	50	223.4
5	460	50.5	223.4
5	461	51	223.4
5	462	51.5	223.4
5	463	52	223.4
5	464	52.5	223.4
5	555	53	223.4
5	556	53.5	223.4
5	557	54	223.4
5	558	54.5	223.4
5	619	55	223.4
5	620	55.5	223.4
5	621	56	223.4
5	622	56.5	223.4
5	623	57	223.4
5	624	57.5	223.4
5	625	58	223.4
5	626	58.5	223.4
5	627	59	223.4
5	628	59.5	223.4
5	629	60	223.4
5	630	60.5	223.4
5	631	61	223.4
5	632	61.5	223.4
5	633	62	223.4
5	634	62.5	223.4
5	637	63	223.4
5	638	63.5	223.4
5	639	64	223.4
5	640	64.5	223.4
5	643	65	223.4
5	644	65.5	223.4
5	645	66	223.4
5	646	66.5	223.4
5	647	67	223.4
5	648	67.5	223.4
5	649	68	223.4
5	650	68.5	223.4
5	651	69	223.4
5	652	69.5	223.4
5	653	70	223.4
5	750	70.5	223.4
5	751	71	223.4
5	752	71.5	223.4
5	753	72	223.4
5	754	72.5	223.4
5	755	73	223.4
5	757	73.5	223.4
5	758	74	223.4
5	759	74.5	223.4
5	760	75	223.4
5	761	75.5	223.4
5	762	76	223.4
5	763	76.5	223.4
5	764	77	223.4
5	765	77.5	223.4
5	766	78	223.4
5	767	78.5	223.4
5	768	79	223.4
5	769	79.5	223.4
5	770	80	223.38198167184
5	771	80.5	222.51440245221
5	772	81	219.9181463833
5	773	81.5	216.5394523829
5	774	82	212.80031389553
5	775	82.5	208.61031081777
5	776	83	203.99644257872
5	777	83.5	198.93002242186
5	778	84	193.38152811635
5	779	84.5	187.27522183333
5	780	85	180.65847417653
5	781	85.5	173.70291711819
5	782	86	166.73693872177
5	783	86.5	159.75947925938
5	784	87	152.81853488294
5	785	87.5	146.59635284626
5	786	88	141.49419318624
5	787	88.5	137.51570559758
5	788	89	134.23422611598
5	789	89.5	130.40234563017
5	790	90	126.06829006748
5	791	90.5	121.26538472319
5	792	91	115.93347091856
5	793	91.5	110.1286013567
5	794	92	103.8385826523
5	795	92.5	97.018107361363
5	796	93	90.04791053455
5	797	93.5	83.093677050475
5	798	94	76.137982637689
5	799	94.5	69.172936316753
5	800	95	62.205767334765
5	801	95.5	55.23731545183
5	802	96	48.655543294286
5	803	96.5	43.160800507756
5	804	97	38.785012671024
5	805	97.5	35.31498089053
5	806	98	31.653146603238
5	807	98.5	28.500164393846
5	808	99	26.841951215888
14	40	19.5	2.4323075155903
14	41	20	3.1779793458065
14	42	20.5	3.3115215771068
14	43	21	4.0693255296464
14	44	21.5	4.6548925994383
14	45	22	5.352478361486
14	46	22.5	5.5789168957528
14	47	23	5.7794746925585
14	49	23.5	7.7514480800726
14	50	24	7.4562503576538
14	51	24.5	8.478455345267
14	52	25	8.8957928325815
14	53	25.5	3.1431341305761
14	54	26	1.9329470963026
14	55	26.5	2.1925526855408
14	56	27	1.250485721159
14	57	27.5	2.0527980440842
14	58	28	2.342479982166
14	59	28.5	2.3456746666641
14	60	29	1.6484104814932
14	61	29.5	2.4726736052316
14	62	30	1.6469069230167
14	63	30.5	2.255598424579
14	162	31	1.8395903750228
14	163	31.5	1.8795743864957
14	164	32	2.1308367647015
14	165	32.5	1.7945687529179
14	231	33	2.4521628348605
14	232	33.5	1.7979335246234
14	233	34	0.973
14	234	34.5	0.973
14	287	35	0.973
14	288	35.5	0.973
14	289	36	0.973
14	290	36.5	1.2996899373182
14	291	37	2.9409590294901
14	292	37.5	4.0057557360534
14	293	38	4.7523595990087
14	294	38.5	4.4291024182634
14	295	39	5.0989614686684
14	296	39.5	6.073104329821
14	297	40	5.3607221258036
14	298	40.5	0.973
14	299	41	0.973
14	300	41.5	0.973
14	301	42	0.973
14	302	42.5	0.973
14	389	43	0.973
14	390	43.5	0.973
14	391	44	0.973
14	392	44.5	0.973
14	449	45	0.973
14	450	45.5	0.973
14	451	46	0.973
14	452	46.5	0.973
14	453	47	1.111765016826
14	454	47.5	1.111447581029
14	455	48	1.1109930635479
14	456	48.5	1.1106620443151
14	457	49	1.1104192519537
14	458	49.5	1.1102566732818
14	459	50	1.1101589029368
14	460	50.5	1.1100967495186
14	461	51	1.1100571187298
14	462	51.5	1.1100354390767
14	463	52	1.1100204484997
14	464	52.5	1.1100125488516
14	555	53	1.110007432257
14	556	53.5	1.1100045333694
14	557	54	1.1100027322613
14	558	54.5	1.1100015914797
14	619	55	1.110000976358
14	620	55.5	1.1100005675604
14	621	56	0.973
14	622	56.5	0.973
14	623	57	0.973
14	624	57.5	0.973
14	625	58	0.973
14	626	58.5	0.973
14	627	59	0.973
14	628	59.5	0.973
14	629	60	0.973
14	630	60.5	0.973
14	631	61	0.973
14	632	61.5	0.973
14	633	62	0.973
14	634	62.5	0.973
14	637	63	0.973
14	638	63.5	0.973
14	639	64	0.973
14	640	64.5	0.973
14	643	65	0.973
14	644	65.5	0.973
14	645	66	0.973
14	646	66.5	0.973
14	647	67	0.973
14	648	67.5	0.973
14	649	68	0.973
14	650	68.5	0.973
14	651	69	0.973
14	652	69.5	0.973
14	653	70	0.973
14	750	70.5	0.973
14	751	71	0.973
14	752	71.5	0.973
14	753	72	0.973
14	754	72.5	0.973
14	755	73	0.973
14	757	73.5	1.111429849996
14	758	74	1.1599132363395
14	759	74.5	1.4090963950352
14	760	75	1.7346681597255
14	761	75.5	2.0267352595583
14	762	76	2.5490218457225
14	763	76.5	3.1006091613018
14	764	77	3.3545103175222
14	765	77.5	4.5201564300416
14	766	78	4.2069106777846
14	767	78.5	5.2239662715677
14	768	79	5.0322366192718
14	769	79.5	1.8227677779462
14	770	80	0.973
14	771	80.5	0.973
14	772	81	0.973
14	773	81.5	1.4975295034846
14	774	82	2.3495746139172
14	775	82.5	0.973
14	776	83	1.5900887727185
14	777	83.5	0.973
14	778	84	4.8137117738093
14	779	84.5	6.1346747559096
14	780	85	6.4818582910342
14	781	85.5	7.1498257116423
14	782	86	6.3407602212832
14	783	86.5	7.9793803391498
14	784	87	8.3863607082916
14	785	87.5	5.1046388512359
14	786	88	0.973
14	787	88.5	0.973
14	788	89	0.973
14	789	89.5	2.6616251293733
14	790	90	3.1308363695554
14	791	90.5	0.973
14	792	91	0.973
14	793	91.5	0.973
14	794	92	5.9694584558972
14	795	92.5	5.8103806086162
14	796	93	6.5029099394575
14	797	93.5	7.0723713404962
14	798	94	7.3211204634657
14	799	94.5	8.6601865554637
14	800	95	7.0883769692385
14	801	95.5	2.2694295783758
14	802	96	2.4171642888186
14	803	96.5	1.6861110724432
14	804	97	0.973
14	805	97.5	0.973
14	806	98	0.973
14	807	98.5	0.973
14	808	99	0.973
14	809	99.5	0.973
14	810	100	0.973
14	811	100.5	0.973
14	812	101	1.3912202607203
14	813	101.5	1.5657801365809
14	814	102	1.6639069501932
13	40	19.5	1.6994533058634
13	41	20	2.0028074290836
13	42	20.5	1.7170229672501
13	43	21	1.9370885960711
13	44	21.5	1.9777372813737
13	45	22	2.0547788806725
13	46	22.5	1.9068532605935
13	47	23	1.7880822616303
13	49	23.5	2.3223095513182
13	50	24	1.9914992568688
13	51	24.5	2.1264827901218
13	52	25	2.062950785514
13	53	25.5	0.32776663513044
13	54	26	-0.030706580863335
13	55	26.5	0.045601397878489
13	56	27	-0.23205132339615
13	57	27.5	0.0076338438503427
13	58	28	0.092477846858092
13	59	28.5	0.0917310974421
13	60	29	-0.11398047344294
13	61	29.5	0.12912910548039
13	62	30	-0.11458974367939
13	63	30.5	0.06558652390726
13	162	31	-0.057298484384084
13	163	31.5	-0.04478294300381
13	164	32	0.029683097023518
13	165	32.5	-0.069632728593426
13	231	33	0.12435256025754
13	232	33.5	-0.069327101442031
13	233	34	-2.4821590538673
13	234	34.5	-4.5
13	287	35	-4.3452959346566
13	288	35.5	-4.4716911954334
13	289	36	-4.1765071800729
13	290	36.5	-0.0056696918560188
13	291	37	1.4283595627593
13	292	37.5	1.9307447695686
13	293	38	2.0600949763134
13	294	38.5	1.6270345992129
13	295	39	1.7600871001231
13	296	39.5	1.9764571812702
13	297	40	1.5116427559619
13	298	40.5	-2.9440899489626
13	299	41	-2.7912760941198
13	300	41.5	-2.5909714328158
13	301	42	-2.5899273608406
13	302	42.5	-2.1298306840306
13	389	43	-1.907374360497
13	390	43.5	-1.534014380378
13	391	44	-1.1031226883283
13	392	44.5	-0.84296143996728
13	449	45	-0.65879675744525
13	450	45.5	-0.41426386270552
13	451	46	-0.25864585228157
13	452	46.5	-0.14672409510116
13	453	47	-0.096298422773772
13	454	47.5	-0.057067923517001
13	455	48	-0.034272375853028
13	456	48.5	-0.019300546369617
13	457	49	-0.011896678288176
13	458	49.5	-0.0074286126602252
13	459	50	-0.0043183847732107
13	460	50.5	-0.002667920040209
13	461	51	-0.0016772421580006
13	462	51.5	-0.00091210957275122
13	463	52	-0.00062556786550065
13	464	52.5	-0.0003293149062272
13	555	53	-0.00021266042582988
13	556	53.5	-0.00012040065005781
13	557	54	-7.4743613861924e-05
13	558	54.5	-4.732279982981e-05
13	619	55	-2.5512999933901e-05
13	620	55.5	-1.6951659201348e-05
13	621	56	-2.3532688234157e-05
13	622	56.5	0
13	623	57	0
13	624	57.5	0
13	625	58	0
13	626	58.5	0
13	627	59	0
13	628	59.5	0
13	629	60	0
13	630	60.5	0
13	631	61	0
13	632	61.5	0
13	633	62	0
13	634	62.5	0
13	637	63	0
13	638	63.5	0
13	639	64	0
13	640	64.5	0
13	643	65	0
13	644	65.5	0
13	645	66	0
13	646	66.5	0
13	647	67	0
13	648	67.5	0
13	649	68	0
13	650	68.5	0
13	651	69	0
13	652	69.5	0
13	653	70	0
13	750	70.5	0
13	751	71	0
13	752	71.5	0
13	753	72	0
13	754	72.5	0
13	755	73	0
13	757	73.5	0.047844592609656
13	758	74	0.52406898172241
13	759	74.5	1.2001958743247
13	760	75	1.4218899495138
13	761	75.5	1.4396333434247
13	762	76	1.6857599325826
13	763	76.5	1.8224535759715
13	764	77	1.6858916839462
13	765	77.5	2.1490053757432
13	766	78	1.6658423947348
13	767	78.5	1.964072337104
13	768	79	1.6567474555364
13	769	79.5	0.11134648384949
13	770	80	-2.8214525296087
13	771	80.5	-0.62539814616592
13	772	81	-0.18040758483143
13	773	81.5	0.015355973485596
13	774	82	0.50149900263296
13	775	82.5	-0.97182723519858
13	776	83	0.080616969335825
13	777	83.5	-0.16214081879705
13	778	84	1.8226670236699
13	779	84.5	2.1921061445959
13	780	85	2.0739982141228
13	781	85.5	2.0983588077128
13	782	86	1.6337287041964
13	783	86.5	2.0156778705027
13	784	87	1.9653161558229
13	785	87.5	0.91222971520056
13	786	88	-2.6454578928499
13	787	88.5	-3.374544110527
13	788	89	-1.9853082390876
13	789	89.5	0.3941676711297
13	790	90	0.56143312706403
13	791	90.5	-1.9988383429661
13	792	91	-4.4406980143031
13	793	91.5	-0.24
13	794	92	2.2292212590389
13	795	92.5	1.8966834140941
13	796	93	1.9663381405501
13	797	93.5	1.9748756286362
13	798	94	1.8790401472058
13	799	94.5	2.1196265125507
13	800	95	1.5122363300247
13	801	95.5	0.071084237741307
13	802	96	0.11293664067984
13	803	96.5	-0.10288051450625
13	804	97	-1.9622237988478
13	805	97.5	-2.6345249147086
13	806	98	-0.78823793116916
13	807	98.5	-1.7046032494785
13	808	99	-1.1084382962399
13	809	99.5	-0.27593016398428
13	810	100	-4.4911121887747
13	811	100.5	-1.66
13	812	101	-0.039902832539843
13	813	101.5	0.068275091419927
13	814	102	0.1261069123866
12	39	19	2.0337790981904
12	40	19.5	2.8835057511221
12	41	20	3.8849094656639
12	42	20.5	4.743420949289
12	43	21	5.7119652473245
12	44	21.5	6.7008338880114
12	45	22	7.7282233283477
12	46	22.5	8.6816499586444
12	47	23	9.5756910894596
12	49	23.5	10.736845865119
12	50	24	11.732595493553
12	51	24.5	12.795836888614
12	52	25	13.827312281371
12	53	25.5	13.991195598936
12	54	26	13.975842308505
12	55	26.5	13.998643007444
12	56	27	13.882617345746
12	57	27.5	13.886434267671
12	58	28	13.9326731911
12	59	28.5	13.978538739821
12	60	29	13.921548503099
12	61	29.5	13.98611305584
12	62	30	13.928818184
12	63	30.5	13.961611445954
12	162	31	13.932962203762
12	163	31.5	13.91057073226
12	164	32	13.925412280771
12	165	32.5	13.890595916475
12	231	33	13.952772196603
12	232	33.5	13.918108645882
12	233	34	12.677029118949
12	234	34.5	10.427029118949
12	287	35	8.2543811516205
12	288	35.5	6.0185355539038
12	289	36	3.9302819638674
12	290	36.5	3.9274471179394
12	291	37	4.641626899319
12	292	37.5	5.6069992841033
12	293	38	6.63704677226
12	294	38.5	7.4505640718664
12	295	39	8.330607621928
12	296	39.5	9.3188362125631
12	297	40	10.074657590544
12	298	40.5	8.6026126160627
12	299	41	7.2069745690028
12	300	41.5	5.9114888525949
12	301	42	4.6165251721746
12	302	42.5	3.5516098301593
12	389	43	2.5979226499109
12	390	43.5	1.8309154597219
12	391	44	1.2793541155577
12	392	44.5	0.85787339557408
12	449	45	0.52847501685146
12	450	45.5	0.3213430854987
12	451	46	0.19202015935791
12	452	46.5	0.11865811180733
12	453	47	0.070508900420447
12	454	47.5	0.041974938661947
12	455	48	0.024838750735433
12	456	48.5	0.015188477550625
12	457	49	0.0092401384065367
12	458	49.5	0.0055258320764241
12	459	50	0.0033666396898188
12	460	50.5	0.0020326796697143
12	461	51	0.001194058590714
12	462	51.5	0.00073800380433834
12	463	52	0.00042521987158802
12	464	52.5	0.00026056241847442
12	555	53	0.00015423220555948
12	556	53.5	9.403188053057e-05
12	557	54	5.6660073599608e-05
12	558	54.5	3.2998673684703e-05
12	619	55	2.0242173717753e-05
12	620	55.5	1.1766344117078e-05
12	621	56	0
12	622	56.5	0
12	623	57	0
12	624	57.5	0
12	625	58	0
12	626	58.5	0
12	627	59	0
12	628	59.5	0
12	629	60	0
12	630	60.5	0
12	631	61	0
12	632	61.5	0
12	633	62	0
12	634	62.5	0
12	637	63	0
12	638	63.5	0
12	639	64	0
12	640	64.5	0
12	643	65	0
12	644	65.5	0
12	645	66	0
12	646	66.5	0
12	647	67	0
12	648	67.5	0
12	649	68	0
12	650	68.5	0
12	651	69	0
12	652	69.5	0
12	653	70	0
12	750	70.5	0
12	751	71	0
12	752	71.5	0
12	753	72	0
12	754	72.5	0
12	755	73	0
12	757	73.5	0.023922296304828
12	758	74	0.28595678716603
12	759	74.5	0.88605472432838
12	760	75	1.5969996990853
12	761	75.5	2.3168163707976
12	762	76	3.159696337089
12	763	76.5	4.0709231250747
12	764	77	4.9138689670478
12	765	77.5	5.9883716549194
12	766	78	6.8212928522868
12	767	78.5	7.8033290208388
12	768	79	8.631702748607
12	769	79.5	8.6873759905318
12	770	80	7.2766497257274
12	771	80.5	6.9639506526445
12	772	81	6.8737468602287
12	773	81.5	6.8814248469715
12	774	82	7.132174348288
12	775	82.5	6.6462607306887
12	776	83	6.6865692153566
12	777	83.5	6.6054988059581
12	778	84	7.5168323177931
12	779	84.5	8.612885390091
12	780	85	9.6498844971524
12	781	85.5	10.699063901009
12	782	86	11.515928253107
12	783	86.5	12.523767188358
12	784	87	13.50642526627
12	785	87.5	13.96254012387
12	786	88	12.639811177445
12	787	88.5	10.952539122182
12	788	89	9.9598850026379
12	789	89.5	10.156968838203
12	790	90	10.437685401735
12	791	90.5	9.4382662302517
12	792	91	7.2179172231002
12	793	91.5	7.0979172231002
12	794	92	8.2125278526196
12	795	92.5	9.1608695596667
12	796	93	10.144038629942
12	797	93.5	11.13147644426
12	798	94	12.070996517863
12	799	94.5	13.130809774138
12	800	95	13.88692793915
12	801	95.5	13.922470058021
12	802	96	13.978938378361
12	803	96.5	13.927498121108
12	804	97	12.946386221684
12	805	97.5	11.62912376433
12	806	98	11.235004798745
12	807	98.5	10.382703174006
12	808	99	9.828484025886
12	809	99.5	9.6905189438938
12	810	100	7.4449628495065
12	811	100.5	6.6149628495065
12	812	101	6.5950114332366
12	813	101.5	6.6291489789465
12	814	102	6.6922024351398
11	38	18.5	26.6
11	39	19	26.6
11	40	19.5	26.6
11	41	20	26.6
11	42	20.5	26.6
11	43	21	26.6
11	44	21.5	26.6
11	45	22	26.6
11	46	22.5	26.6
11	47	23	26.6
11	49	23.5	26.6
11	50	24	26.6
11	51	24.5	26.6
11	52	25	26.6
11	53	25.5	26.6
11	54	26	26.6
11	55	26.5	26.6
11	56	27	26.6
11	57	27.5	26.6
11	58	28	26.6
11	59	28.5	26.6
11	60	29	26.6
11	61	29.5	26.6
11	62	30	26.6
11	63	30.5	26.6
11	162	31	26.6
11	163	31.5	26.6
11	164	32	26.6
11	165	32.5	26.6
11	231	33	26.6
11	232	33.5	26.6
11	233	34	26.6
11	234	34.5	26.6
11	287	35	26.6
11	288	35.5	26.6
11	289	36	26.655458238897
11	290	36.5	27.98828404487
11	291	37	30.152658142495
11	292	37.5	32.751415924969
11	293	38	35.86235412242
11	294	38.5	39.430523510475
11	295	39	43.437031951594
11	296	39.5	47.912527195972
11	297	40	52.81921013928
11	298	40.5	57.435080671413
11	299	41	61.335447537628
11	300	41.5	64.551306176683
11	301	42	67.122754422521
11	302	42.5	69.12034991084
11	389	43	70.610729809215
11	390	43.5	71.6864719948
11	391	44	72.438122199921
11	392	44.5	72.942673767027
11	449	45	73.261612479248
11	450	45.5	73.460664339361
11	451	46	73.58147330061
11	452	46.5	73.654214016487
11	453	47	73.697946040265
11	454	47.5	73.724265047746
11	455	48	73.739909282855
11	456	48.5	73.749411069065
11	457	49	73.755110791346
11	458	49.5	73.758534685921
11	459	50	73.760567353341
11	460	50.5	73.761805093986
11	461	51	73.762554257587
11	462	51.5	73.763005895342
11	463	52	73.763273310733
11	464	52.5	73.763432007064
11	555	53	73.763529209578
11	556	53.5	73.763586588456
11	557	54	73.763621055097
11	558	54.5	73.763641580296
11	619	55	73.763654080645
11	620	55.5	73.763661441774
11	621	56	73.763662540597
11	622	56.5	73.763662540597
11	623	57	73.763662540597
11	624	57.5	73.763662540597
11	625	58	73.763662540597
11	626	58.5	73.763662540597
11	627	59	73.763662540597
11	628	59.5	73.763662540597
11	629	60	73.763662540597
11	630	60.5	73.763662540597
11	631	61	73.763662540597
11	632	61.5	73.763662540597
11	633	62	73.763662540597
11	634	62.5	73.763662540597
11	637	63	73.763662540597
11	638	63.5	73.763662540597
11	639	64	73.763662540597
11	640	64.5	73.763662540597
11	643	65	73.763662540597
11	644	65.5	73.763662540597
11	645	66	73.763662540597
11	646	66.5	73.763662540597
11	647	67	73.763662540597
11	648	67.5	73.763662540597
11	649	68	73.763662540597
11	650	68.5	73.763662540597
11	651	69	73.763662540597
11	652	69.5	73.763662540597
11	653	70	73.763662540597
11	750	70.5	73.763662540597
11	751	71	73.763662540597
11	752	71.5	73.763662540597
11	753	72	73.763662540597
11	754	72.5	73.763662540597
11	755	73	73.763662540597
11	757	73.5	73.76727635582
11	758	74	73.842066045624
11	759	74.5	74.149577370213
11	760	75	74.797817735348
11	761	75.5	75.804108056987
11	762	76	77.227831994386
11	763	76.5	79.081978838122
11	764	77	81.375602340354
11	765	77.5	84.153879663196
11	766	78	87.373487748829
11	767	78.5	91.074982553082
11	768	79	95.236933399511
11	769	79.5	99.721670821796
11	770	80	103.62305665952
11	771	80.5	107.07314147383
11	772	81	110.51214249076
11	773	81.5	113.94800886016
11	774	82	117.51517284881
11	775	82.5	120.73231112942
11	776	83	122.95020584133
11	777	83.5	123.4
11	778	84	123.4
11	779	84.5	123.4
11	780	85	123.4
11	781	85.5	123.4
11	782	86	123.4
11	783	86.5	123.4
11	784	87	123.4
11	785	87.5	123.4
11	786	88	123.4
11	787	88.5	123.4
11	788	89	123.4
11	789	89.5	123.4
11	790	90	123.4
11	791	90.5	123.4
11	792	91	123.4
11	793	91.5	123.4
11	794	92	123.4
11	795	92.5	123.4
11	796	93	123.4
11	797	93.5	123.4
11	798	94	123.4
11	799	94.5	123.4
11	800	95	123.4
11	801	95.5	123.4
11	802	96	123.4
11	803	96.5	123.4
11	804	97	123.4
11	805	97.5	123.4
11	806	98	123.4
11	807	98.5	123.4
11	808	99	123.4
11	809	99.5	123.4
11	810	100	123.4
11	811	100.5	123.4
11	812	101	123.28691651289
11	813	101.5	122.20498673509
11	814	102	119.36694213582
10	38	18.5	33.046218707954
10	39	19	33.869891378224
10	40	19.5	35.142771606722
10	41	20	36.895406519027
10	42	20.5	39.08310620277
10	43	21	41.741883768408
10	44	21.5	44.892578398985
10	45	22	48.540364877192
10	46	22.5	52.686588089767
10	47	23	57.299581251786
10	49	23.5	62.445738186093
10	50	24	68.090062878589
10	51	24.5	74.271277000266
10	52	25	80.977026550737
10	53	25.5	87.950273230466
10	54	26	94.921464904582
10	55	26.5	101.9137779807
10	56	27	108.88088273228
10	57	27.5	115.84014455639
10	58	28	122.80763602852
10	59	28.5	129.76487643374
10	60	29	136.72480389972
10	61	29.5	143.69242235885
10	62	30	150.66208254017
10	63	30.5	157.6292834351
10	162	31	164.59332455728
10	163	31.5	171.5688525417
10	164	32	178.53555018421
10	165	32.5	185.49849575799
10	231	33	192.46168817015
10	232	33.5	199.42482709766
10	233	34	206.14665621424
10	234	34.5	211.81017077372
10	287	35	216.38379282555
10	288	35.5	219.84164516227
10	289	36	222.18820767228
10	290	36.5	223.36975486355
10	291	37	223.4
10	292	37.5	223.4
10	293	38	223.4
10	294	38.5	223.4
10	295	39	223.4
10	296	39.5	223.4
10	297	40	223.4
10	298	40.5	223.4
10	299	41	223.4
10	300	41.5	223.4
10	301	42	223.4
10	302	42.5	223.4
10	389	43	223.4
10	390	43.5	223.4
10	391	44	223.4
10	392	44.5	223.4
10	449	45	223.4
10	450	45.5	223.4
10	451	46	223.4
10	452	46.5	223.4
10	453	47	223.4
10	454	47.5	223.4
10	455	48	223.4
10	456	48.5	223.4
10	457	49	223.4
10	458	49.5	223.4
10	459	50	223.4
10	460	50.5	223.4
10	461	51	223.4
10	462	51.5	223.4
10	463	52	223.4
10	464	52.5	223.4
10	555	53	223.4
10	556	53.5	223.4
10	557	54	223.4
10	558	54.5	223.4
10	619	55	223.4
10	620	55.5	223.4
10	621	56	223.4
10	622	56.5	223.4
10	623	57	223.4
10	624	57.5	223.4
10	625	58	223.4
10	626	58.5	223.4
10	627	59	223.4
10	628	59.5	223.4
10	629	60	223.4
10	630	60.5	223.4
10	631	61	223.4
10	632	61.5	223.4
10	633	62	223.4
10	634	62.5	223.4
10	637	63	223.4
10	638	63.5	223.4
10	639	64	223.4
10	640	64.5	223.4
10	643	65	223.4
10	644	65.5	223.4
10	645	66	223.4
10	646	66.5	223.4
10	647	67	223.4
10	648	67.5	223.4
10	649	68	223.4
10	650	68.5	223.4
10	651	69	223.4
10	652	69.5	223.4
10	653	70	223.4
10	750	70.5	223.4
10	751	71	223.4
10	752	71.5	223.4
10	753	72	223.4
10	754	72.5	223.4
10	755	73	223.4
10	757	73.5	223.4
10	758	74	223.4
10	759	74.5	223.4
10	760	75	223.4
10	761	75.5	223.4
10	762	76	223.4
10	763	76.5	223.4
10	764	77	223.4
10	765	77.5	223.4
10	766	78	223.4
10	767	78.5	223.4
10	768	79	223.4
10	769	79.5	223.4
10	770	80	223.4
10	771	80.5	223.4
10	772	81	223.4
10	773	81.5	223.4
10	774	82	223.4
10	775	82.5	222.76061332235
10	776	83	220.41632359778
10	777	83.5	217.1549798882
10	778	84	213.59998661033
10	779	84.5	209.5284495211
10	780	85	204.90987823323
10	781	85.5	199.77026006477
10	782	86	194.1836178723
10	783	86.5	188.11719073891
10	784	87	181.542213009
10	785	87.5	174.61120133788
10	786	88	167.96440795511
10	787	88.5	162.15213316739
10	788	89	157.07164082726
10	789	89.5	152.03350913109
10	790	90	146.86602796618
10	791	90.5	141.7904248264
10	792	91	137.73146621485
10	793	91.5	134.3715076033
10	794	92	130.47679234762
10	795	92.5	126.08523676553
10	796	93	121.19544526676
10	797	93.5	115.85106936916
10	798	94	110.02301446656
10	799	94.5	103.68630062923
10	800	95	96.855260971748
10	801	95.5	89.890241579768
10	802	96	82.911885198259
10	803	96.5	75.952492342778
10	804	97	69.172362898651
10	805	97.5	63.184688672039
10	806	98	57.443986074352
10	807	98.5	52.150211686346
10	808	99	47.127217410747
10	809	99.5	42.279963900264
10	810	100	38.107482475511
10	811	100.5	34.847001050758
10	812	101	31.408415590214
10	813	101.5	28.341644558485
10	814	102	26.823848876545
24	462	51.5	2.5492664954809
24	463	52	2.8889139697943
24	464	52.5	3.5960760529081
24	555	53	4.4198508304134
24	556	53.5	4.9377690714808
24	557	54	5.1645160137769
24	558	54.5	6.1911572689029
24	619	55	5.972583382674
24	620	55.5	6.6200472812619
24	621	56	7.0901240385291
24	622	56.5	7.6261506724904
24	623	57	8.8266588944044
24	624	57.5	4.1650399179566
24	625	58	1.2245590394826
24	626	58.5	2.1478320226222
24	627	59	2.2318972723432
24	628	59.5	2.1532176828081
24	629	60	2.0741653142758
24	630	60.5	2.2996025286103
24	631	61	2.1046054366479
24	632	61.5	1.5526621457061
24	633	62	2.4808592445264
24	634	62.5	1.2747404882025
24	637	63	2.4740900817276
24	638	63.5	2.3219386560871
24	639	64	1.2845561822876
24	640	64.5	2.4557781247076
24	643	65	1.7777906997367
24	644	65.5	1.8416353141249
24	645	66	0.973
24	646	66.5	0.973
24	647	67	0.973
24	648	67.5	0.973
24	649	68	0.973
24	650	68.5	0.973
24	651	69	2.1217058273784
24	652	69.5	3.3585177405688
24	653	70	4.2062216096654
24	750	70.5	4.2220350308592
24	751	71	5.8892535257015
24	752	71.5	3.9428027219281
24	753	72	0.973
24	754	72.5	0.973
24	755	73	0.973
24	757	73.5	0.973
24	758	74	0.973
24	759	74.5	0.973
24	760	75	0.973
24	761	75.5	1.1509030618867
24	762	76	1.339987976829
24	763	76.5	1.7225779697603
24	764	77	2.009279657913
24	765	77.5	2.5264440874868
24	766	78	3.143881549608
24	767	78.5	3.4415964029218
24	768	79	4.2197694490626
24	769	79.5	4.5391536617524
24	770	80	0.973
24	771	80.5	0.973
24	772	81	1.4889542245806
24	773	81.5	2.1079987339039
24	774	82	1.9078985981861
24	775	82.5	0.973
24	776	83	2.0053890857369
24	777	83.5	0.973
24	778	84	2.6029190606527
24	779	84.5	4.26520680058
24	780	85	4.4895943665566
24	781	85.5	0.973
24	782	86	0.973
24	783	86.5	1.2321699583346
24	784	87	1.5879406035298
24	785	87.5	1.4920443854016
24	786	88	4.2676389392937
24	787	88.5	4.3964059602655
24	788	89	5.3862864052431
24	789	89.5	6.1536742503385
24	790	90	6.2990487996734
24	791	90.5	7.8189662947336
24	792	91	6.9101232651557
24	793	91.5	7.7582528826997
24	794	92	7.2715652114539
24	795	92.5	2.4228080146613
24	796	93	1.7146190663822
24	797	93.5	0.973
24	798	94	0.973
24	799	94.5	0.973
24	800	95	0.973
24	801	95.5	3.5929128797487
24	802	96	6.0515820679235
24	803	96.5	6.5619615078852
24	804	97	6.7954208524423
24	805	97.5	7.6846803074518
24	806	98	7.0094495855842
24	807	98.5	7.9410008257667
24	808	99	5.731258207045
24	809	99.5	2.1254126389007
24	810	100	2.293840246281
24	811	100.5	2.0350044849319
24	812	101	0.973
24	813	101.5	0.973
24	814	102	0.973
24	815	102.5	0.973
24	816	103	0.973
24	817	103.5	0.973
24	818	104	0.973
24	819	104.5	0.973
24	820	105	0.973
24	821	105.5	1.4727804299449
24	822	106	1.4679999430918
23	462	51.5	1.8104770095009
23	463	52	1.7230881931866
23	464	52.5	1.9412614973914
23	555	53	2.1294550102903
23	556	53.5	2.0823241686542
23	557	54	1.9161828920804
23	558	54.5	2.1310837564012
23	619	55	1.814454173753
23	620	55.5	1.8776242396841
23	621	56	1.8669679872924
23	622	56.5	1.8768000048958
23	623	57	2.0688235860737
23	624	57.5	0.63057878293753
23	625	58	-0.23969713018275
23	626	58.5	0.035826147818003
23	627	59	0.05989424686879
23	628	59.5	0.035853918208741
23	629	60	0.012134372484869
23	630	60.5	0.07780527372379
23	631	61	0.019638886144385
23	632	61.5	-0.14256846149918
23	633	62	0.13141382344999
23	634	62.5	-0.22472725201864
23	637	63	0.13126250163186
23	638	63.5	0.084442027234473
23	639	64	-0.22174880960025
23	640	64.5	0.12603511733469
23	643	65	-0.074877757309007
23	644	65.5	-0.05509205727838
23	645	66	-2.908013663693
23	646	66.5	-4.5
23	647	67	-4.5
23	648	67.5	-4.4513422952546
23	649	68	-4.5
23	650	68.5	-0.17256686924956
23	651	69	0.89750778373331
23	652	69.5	1.7787832666701
23	653	70	2.03624953527
23	750	70.5	1.7442450474063
23	751	71	2.3348854399752
23	752	71.5	1.1819997154197
23	753	72	-3.1479634037111
23	754	72.5	-2.5609254444115
23	755	73	-2.4198022759444
23	757	73.5	-2.2679012343781
23	758	74	-1.5706811050323
23	759	74.5	-1.4344739112012
23	760	75	-0.74789059795466
23	761	75.5	-0.063511135336168
23	762	76	0.45155426807983
23	763	76.5	1.070633729438
23	764	77	1.226373612133
23	765	77.5	1.5350947617294
23	766	78	1.7718691877201
23	767	78.5	1.684373120262
23	768	79	1.9138105356815
23	769	79.5	1.8213953940659
23	770	80	-0.912742367623
23	771	80.5	-0.45230603629699
23	772	81	0.033828917722314
23	773	81.5	0.4188727555186
23	774	82	0.28009789437556
23	775	82.5	-0.33158140914781
23	776	83	0.34046020612219
23	777	83.5	-0.24858318544926
23	778	84	0.68217101808738
23	779	84.5	1.494217254602
23	780	85	1.4520257019531
23	781	85.5	-1.6425416931945
23	782	86	-3.6837919398351
23	783	86.5	-0.12223795471247
23	784	87	0.13556711965241
23	785	87.5	0.064013508842327
23	786	88	1.7651128305774
23	787	88.5	1.616811790159
23	788	89	1.8939851334039
23	789	89.5	2.0006292876508
23	790	90	1.8513012546068
23	791	90.5	2.1943892570306
23	792	91	1.708123711925
23	793	91.5	1.8299762147013
23	794	92	1.5596863210718
23	795	92.5	0.11399378953967
23	796	93	-0.094860068899578
23	797	93.5	-0.90078341504369
23	798	94	-4.5
23	799	94.5	-4.4657962515679
23	800	95	-4.5
23	801	95.5	1.18
23	802	96	2.1980687433621
23	803	96.5	2.1404771230603
23	804	97	1.9992084750207
23	805	97.5	2.1051992413262
23	806	98	1.709853062639
23	807	98.5	1.8534476375999
23	808	99	1.1042517995824
23	809	99.5	0.028126850542613
23	810	100	0.076936945868656
23	811	100.5	1.330604776939e-05
23	812	101	-0.51872432439247
23	813	101.5	-1.8034409253504
23	814	102	-1.4579389853919
23	815	102.5	-0.3614104269004
23	816	103	-3.7831276153104
23	817	103.5	-4.3923914766898
23	818	104	-1.6208446302585
23	819	104.5	-2.4879910100565
23	820	105	-0.25142320675775
23	821	105.5	0.054004543698394
23	822	106	0.049246406131424
22	461	51	2.0600149748435
22	462	51.5	2.9652534795939
22	463	52	3.8267975761872
22	464	52.5	4.7974283248829
22	555	53	5.862155830028
22	556	53.5	6.9033179143551
22	557	54	7.8614093603953
22	558	54.5	8.9269512385959
22	619	55	9.8341783254724
22	620	55.5	10.772990445314
22	621	56	11.706474438961
22	622	56.5	12.644874441409
22	623	57	13.679286234445
22	624	57.5	13.994575625914
22	625	58	13.874727060823
22	626	58.5	13.892640134732
22	627	59	13.922587258166
22	628	59.5	13.940514217271
22	629	60	13.946581403513
22	630	60.5	13.985484040375
22	631	61	13.995303483447
22	632	61.5	13.924019252697
22	633	62	13.989726164422
22	634	62.5	13.877362538413
22	637	63	13.942993789229
22	638	63.5	13.985214802846
22	639	64	13.874340398046
22	640	64.5	13.937357956714
22	643	65	13.899919078059
22	644	65.5	13.87237304942
22	645	66	12.418366217573
22	646	66.5	10.168366217573
22	647	67	7.9183662175733
22	648	67.5	5.692695069946
22	649	68	3.442695069946
22	650	68.5	3.3564116353212
22	651	69	3.8051655271879
22	652	69.5	4.6945571605229
22	653	70	5.7126819281579
22	750	70.5	6.5848044518611
22	751	71	7.7522471718487
22	752	71.5	8.3432470295585
22	753	72	6.769265327703
22	754	72.5	5.4888026054972
22	755	73	4.278901467525
22	757	73.5	3.144950850336
22	758	74	2.3596102978198
22	759	74.5	1.6423733422192
22	760	75	1.2684280432419
22	761	75.5	1.2366724755738
22	762	76	1.4624496096137
22	763	76.5	1.9977664743327
22	764	77	2.6109532803992
22	765	77.5	3.3785006612639
22	766	78	4.264435255124
22	767	78.5	5.106621815255
22	768	79	6.0635270830957
22	769	79.5	6.9742247801287
22	770	80	6.5178535963172
22	771	80.5	6.2917005781687
22	772	81	6.3086150370298
22	773	81.5	6.5180514147891
22	774	82	6.6581003619769
22	775	82.5	6.492309657403
22	776	83	6.6625397604641
22	777	83.5	6.5382481677395
22	778	84	6.8793336767832
22	779	84.5	7.6264423040842
22	780	85	8.3524551550607
22	781	85.5	7.5311843084635
22	782	86	5.6892883385459
22	783	86.5	5.6281693611897
22	784	87	5.6959529210159
22	785	87.5	5.7279596754371
22	786	88	6.6105160907258
22	787	88.5	7.4189219858053
22	788	89	8.3659145525072
22	789	89.5	9.3662291963326
22	790	90	10.291879823636
22	791	90.5	11.389074452151
22	792	91	12.243136308114
22	793	91.5	13.158124415464
22	794	92	13.937967576
22	795	92.5	13.99496447077
22	796	93	13.94753443632
22	797	93.5	13.497142728799
22	798	94	11.247142728799
22	799	94.5	9.0142446030146
22	800	95	6.7642446030146
22	801	95.5	7.3542446030146
22	802	96	8.4532789746957
22	803	96.5	9.5235175362258
22	804	97	10.523121773736
22	805	97.5	11.575721394399
22	806	98	12.430647925719
22	807	98.5	13.357371744519
22	808	99	13.90949764431
22	809	99.5	13.923561069581
22	810	100	13.962029542516
22	811	100.5	13.962036195539
22	812	101	13.702674033343
22	813	101.5	12.800953570668
22	814	102	12.071984077972
22	815	102.5	11.891278864522
22	816	103	9.9997150568666
22	817	103.5	7.8035193185217
22	818	104	6.9930970033925
22	819	104.5	5.7491014983642
22	820	105	5.6233898949854
22	821	105.5	5.6503921668346
22	822	106	5.6750153699003
21	460	50.5	26.6
21	461	51	26.6
21	462	51.5	26.6
21	463	52	26.6
21	464	52.5	26.6
21	555	53	26.6
21	556	53.5	26.6
21	557	54	26.6
21	558	54.5	26.6
21	619	55	26.6
21	620	55.5	26.6
21	621	56	26.6
21	622	56.5	26.6
21	623	57	26.6
21	624	57.5	26.6
21	625	58	26.6
21	626	58.5	26.6
21	627	59	26.6
21	628	59.5	26.6
21	629	60	26.6
21	630	60.5	26.6
21	631	61	26.6
21	632	61.5	26.6
21	633	62	26.6
21	634	62.5	26.6
21	637	63	26.6
21	638	63.5	26.6
21	639	64	26.6
21	640	64.5	26.6
21	643	65	26.6
21	644	65.5	26.6
21	645	66	26.6
21	646	66.5	26.6
21	647	67	26.6
21	648	67.5	26.6
21	649	68	26.617067644616
21	650	68.5	27.442234504907
21	651	69	29.185766203505
21	652	69.5	31.342490596498
21	653	70	34.006366543915
21	750	70.5	37.105918024357
21	751	71	40.755709744421
21	752	71.5	44.892841142942
21	753	72	48.601839802686
21	754	72.5	51.617464375834
21	755	73	53.994769298623
21	757	73.5	55.801281119697
21	758	74	57.126379836547
21	759	74.5	58.065857870743
21	760	75	58.761809279457
21	761	75.5	59.370694703926
21	762	76	60.044646735955
21	763	76.5	60.929727405208
21	764	77	62.0987250469
21	765	77.5	63.651059273319
21	766	78	65.616973243623
21	767	78.5	68.008593206917
21	768	79	70.845720203915
21	769	79.5	74.136065207792
21	770	80	77.486002984303
21	771	80.5	80.650474673279
21	772	81	83.803793836975
21	773	81.5	87.012648301804
21	774	82	90.285860095843
21	775	82.5	93.579533576593
21	776	83	96.854241699792
21	777	83.5	100.2057967023
21	778	84	103.55155866293
21	779	84.5	107.23590456871
21	780	85	111.29707700757
21	781	85.5	115.40584921839
21	782	86	118.52995629073
21	783	86.5	121.18954212462
21	784	87	122.97807059643
21	785	87.5	123.4
21	786	88	123.4
21	787	88.5	123.4
21	788	89	123.4
21	789	89.5	123.4
21	790	90	123.4
21	791	90.5	123.4
21	792	91	123.4
21	793	91.5	123.4
21	794	92	123.4
21	795	92.5	123.4
21	796	93	123.4
21	797	93.5	123.4
21	798	94	123.4
21	799	94.5	123.4
21	800	95	123.4
21	801	95.5	123.4
21	802	96	123.4
21	803	96.5	123.4
21	804	97	123.4
21	805	97.5	123.4
21	806	98	123.4
21	807	98.5	123.4
21	808	99	123.4
21	809	99.5	123.4
21	810	100	123.4
21	811	100.5	123.4
21	812	101	123.4
21	813	101.5	123.4
21	814	102	123.4
21	815	102.5	123.4
21	816	103	123.4
21	817	103.5	123.4
21	818	104	123.4
21	819	104.5	123.36773343001
21	820	105	122.74767185671
21	821	105.5	120.81820926472
21	822	106	118.08759193542
20	460	50.5	33.042939027208
20	461	51	33.851935808882
20	462	51.5	35.16058573593
20	463	52	36.907659967399
20	464	52.5	39.098353429128
20	555	53	41.826761500502
20	556	53.5	45.066870171341
20	557	54	48.816625637176
20	558	54.5	53.070961105677
20	619	55	57.818362960569
20	620	55.5	62.994114168708
20	621	56	68.652055571726
20	622	56.5	74.798780340859
20	623	57	81.442943961353
20	624	57.5	88.395932593789
20	625	58	95.359715924066
20	626	58.5	102.32055548799
20	627	59	109.29528273266
20	628	59.5	116.27381643672
20	629	60	123.23556166806
20	630	60.5	130.22036731213
20	631	61	137.19070871074
20	632	61.5	144.14652236829
20	633	62	151.10830070918
20	634	62.5	158.06403298279
20	637	63	165.04534376748
20	638	63.5	172.02565754517
20	639	64	179.00096074261
20	640	64.5	185.96772903802
20	643	65	192.92406336168
20	644	65.5	199.88240290512
20	645	66	206.50960629246
20	646	66.5	212.04378940125
20	647	67	216.45297251003
20	648	67.5	219.74932004501
20	649	68	221.91947351231
20	650	68.5	223.26534070294
20	651	69	223.4
20	652	69.5	223.4
20	653	70	223.4
20	750	70.5	223.4
20	751	71	223.4
20	752	71.5	223.4
20	753	72	223.4
20	754	72.5	223.4
20	755	73	223.4
20	757	73.5	223.4
20	758	74	223.4
20	759	74.5	223.4
20	760	75	223.4
20	761	75.5	223.4
20	762	76	223.4
20	763	76.5	223.4
20	764	77	223.4
20	765	77.5	223.4
20	766	78	223.4
20	767	78.5	223.4
20	768	79	223.4
20	769	79.5	223.4
20	770	80	223.4
20	771	80.5	223.4
20	772	81	223.4
20	773	81.5	223.4
20	774	82	223.4
20	775	82.5	223.4
20	776	83	223.4
20	777	83.5	223.4
20	778	84	223.4
20	779	84.5	223.4
20	780	85	223.4
20	781	85.5	223.4
20	782	86	223.2957205299
20	783	86.5	222.48627472523
20	784	87	220.36988233929
20	785	87.5	217.55856857319
20	786	88	214.42654626307
20	787	88.5	210.86362495853
20	788	89	206.8859612261
20	789	89.5	202.42141995527
20	790	90	197.46064696042
20	791	90.5	191.9765319624
20	792	91	186.02489459347
20	793	91.5	179.6162422698
20	794	92	172.79518045064
20	795	92.5	165.82977046933
20	796	93	158.85633106829
20	797	93.5	151.92949517279
20	798	94	145.85592380839
20	799	94.5	140.90222188173
20	800	95	137.07009958022
20	801	95.5	133.65297727871
20	802	96	129.62182766987
20	803	96.5	125.07614967644
20	804	97	120.01907008576
20	805	97.5	114.44537891424
20	806	98	108.40906786565
20	807	98.5	101.9093066491
20	808	99	94.989122010944
20	809	99.5	88.029486604751
20	810	100	81.055489749507
20	811	100.5	74.100762260762
20	812	101	67.153281183037
20	813	101.5	60.574673699126
20	814	102	54.39743553504
20	815	102.5	48.510282502634
20	816	103	43.061195792052
20	817	103.5	38.716375413393
20	818	104	35.266826911696
20	819	104.5	31.974134010077
20	820	105	29.246119761175
20	821	105.5	27.290925558831
20	822	106	26.641084562203
vector 25 FinalProjectNetwork.node[5].veinsmobility posx ETV
vector 26 FinalProjectNetwork.node[5].veinsmobility posy ETV
vector 27 FinalProjectNetwork.node[5].veinsmobility speed ETV
vector 28 FinalProjectNetwork.node[5].veinsmobility acceleration ETV
vector 29 FinalProjectNetwork.node[5].veinsmobility co2emission ETV
4	4	1.5	2.7227554986903
4	5	2	3.4097692795794
4	6	2.5	3.6115733013637
4	7	3	3.9531725392898
4	8	3.5	4.8196048427594
4	9	4	4.9484270660865
4	10	4.5	5.680209377158
4	11	5	6.8002109041759
4	12	5.5	6.8200275641205
4	13	6	7.3013789614993
4	14	6.5	8.269926253105
4	15	7	8.8023355188858
4	16	7.5	2.9075745451622
4	17	8	1.7448258606596
4	18	8.5	1.6130684416034
4	19	9	2.4767274957666
4	20	9.5	2.3882427953336
4	21	10	1.4684295762927
4	22	10.5	2.2469196727522
4	23	11	1.8816698089568
4	24	11.5	2.3116395466194
4	25	12	1.5518316528079
4	26	12.5	2.5364861144826
4	27	13	1.8120337408229
4	28	13.5	1.7625225080328
4	29	14	2.1176308903027
4	30	14.5	2.4789637139552
4	31	15	1.9838310995827
4	32	15.5	1.8133070916357
4	33	16	0.973
4	34	16.5	0.973
4	35	17	0.973
4	36	17.5	0.973
4	37	18	0.973
4	38	18.5	1.8762850178767
4	39	19	4.1190172733489
4	40	19.5	4.3205170206528
4	41	20	4.9130395747884
4	42	20.5	5.3620519436994
4	43	21	5.657516392204
4	44	21.5	7.3376194504444
4	45	22	7.0046923721359
4	46	22.5	7.6586423071936
4	47	23	7.3055262928547
4	49	23.5	0.973
4	50	24	0.973
4	51	24.5	0.973
4	52	25	0.973
4	53	25.5	0.973
4	54	26	0.973
4	55	26.5	0.973
4	56	27	0.973
4	57	27.5	0.973
4	58	28	0.973
4	59	28.5	0.973
4	60	29	0.973
4	61	29.5	0.973
4	62	30	0.973
4	63	30.5	0.973
4	162	31	0.973
4	163	31.5	0.973
4	164	32	0.973
4	165	32.5	0.973
4	231	33	0.973
4	232	33.5	0.973
4	233	34	0.973
4	234	34.5	0.973
4	287	35	0.973
4	288	35.5	0.973
4	289	36	0.973
4	290	36.5	0.973
4	291	37	0.973
4	292	37.5	0.973
4	293	38	0.973
4	294	38.5	0.973
4	295	39	0.973
4	296	39.5	0.973
4	297	40	0.973
4	298	40.5	0.973
4	299	41	0.973
4	300	41.5	0.973
4	301	42	0.973
4	302	42.5	0.973
4	389	43	0.973
4	390	43.5	0.973
4	391	44	0.973
4	392	44.5	0.973
4	449	45	0.973
4	450	45.5	0.973
4	451	46	0.973
4	452	46.5	0.973
4	453	47	0.973
4	454	47.5	0.973
4	455	48	0.973
4	456	48.5	0.973
4	457	49	0.973
4	458	49.5	0.973
4	459	50	0.973
4	460	50.5	0.973
4	461	51	0.973
4	462	51.5	0.973
4	463	52	0.973
4	464	52.5	0.973
4	555	53	0.973
4	556	53.5	0.973
4	557	54	0.973
4	558	54.5	0.973
4	619	55	0.973
4	620	55.5	0.973
4	621	56	0.973
4	622	56.5	0.973
4	623	57	0.973
4	624	57.5	0.973
4	625	58	0.973
4	626	58.5	0.973
4	627	59	0.973
4	628	59.5	0.973
4	629	60	0.973
4	630	60.5	0.973
4	631	61	0.973
4	632	61.5	0.973
4	633	62	0.973
4	634	62.5	0.973
4	637	63	0.973
4	638	63.5	0.973
4	639	64	0.973
4	640	64.5	0.973
4	643	65	0.973
4	644	65.5	0.973
4	645	66	0.973
4	646	66.5	0.973
4	647	67	0.973
4	648	67.5	0.973
4	649	68	0.973
4	650	68.5	0.973
4	651	69	0.973
4	652	69.5	0.973
4	653	70	0.973
4	750	70.5	0.973
4	751	71	0.973
4	752	71.5	0.973
4	753	72	0.973
4	754	72.5	0.973
4	755	73	0.973
4	757	73.5	1.8343771105184
4	758	74	2.3928792555691
4	759	74.5	2.7728939484352
4	760	75	2.9821596415853
4	761	75.5	3.2227353857624
4	762	76	3.9501100607091
4	763	76.5	4.8750248983633
4	764	77	5.570853390248
4	765	77.5	5.8098094735853
4	766	78	6.1900938908383
4	767	78.5	6.5667144871094
4	768	79	7.166543381561
4	769	79.5	7.5623133208998
4	770	80	8.797030538566
4	771	80.5	3.9728908980615
4	772	81	2.2241530699429
4	773	81.5	1.469187846404
4	774	82	1.898790483153
4	775	82.5	2.2912392309775
4	776	83	2.3648163802029
4	777	83.5	2.152631482049
4	778	84	1.799011252977
4	779	84.5	2.0550346568223
4	780	85	0.973
4	781	85.5	0.973
4	782	86	0.973
4	783	86.5	0.973
4	784	87	0.973
4	785	87.5	1.412939702942
4	786	88	4.005873908823
4	787	88.5	4.5980394972478
4	788	89	5.1361045979356
4	789	89.5	4.8424419091057
4	790	90	5.5185970644156
4	791	90.5	6.3371762399338
4	792	91	6.7879909655855
4	793	91.5	6.5196984994025
4	794	92	8.0697547045284
4	795	92.5	7.7827731780244
4	796	93	3.835542915934
4	797	93.5	2.0365955779682
4	798	94	1.8188489811128
4	799	94.5	2.2116065716138
4	800	95	2.0460464592985
4	801	95.5	1.4681104637427
4	802	96	2.0582627216179
4	803	96.5	2.4799256870754
4	804	97	2.0755491519752
4	805	97.5	1.6966957928553
4	806	98	2.6097210007405
4	807	98.5	1.4495495880602
4	808	99	2.4022085159714
4	809	99.5	1.5897788926657
4	810	100	2.2568167858602
4	811	100.5	2.2301870818766
4	812	101	2.2760814058411
4	813	101.5	1.7868196644441
4	814	102	0.973
4	815	102.5	0.973
4	816	103	0.973
4	817	103.5	0.973
4	818	104	0.973
4	819	104.5	1.3995944992045
4	820	105	3.9003988698586
4	821	105.5	4.1388036423612
4	822	106	4.4428403214369
4	823	106.5	4.5626129804761
4	824	107	6.4930303174333
4	825	107.5	6.6935746134159
4	826	108	7.8389320404365
4	827	108.5	6.6436042331856
4	828	109	8.0603163881437
4	829	109.5	7.7990575093278
4	830	110	2.7949966890119
4	831	110.5	2.4328203839908
4	832	111	1.6290327671527
4	833	111.5	1.7457055588348
4	834	112	1.9388652936061
4	835	112.5	1.9479727752534
4	836	113	2.3899847232751
4	837	113.5	2.3880176811959
3	4	1.5	1.958632248079
3	5	2	2.0966247490561
3	6	2.5	1.8401784111978
3	7	3	1.7697448709374
3	8	3.5	1.9972208790807
3	9	4	1.8053666497534
3	10	4.5	1.9224847997259
3	11	5	2.1507414033078
3	12	5.5	1.937460715808
3	13	6	1.9207384655857
3	14	6.5	2.0504281333974
3	15	7	2.0299869080819
3	16	7.5	0.25824870097878
3	17	8	-0.085723198582418
3	18	8.5	-0.12361248251051
3	19	9	0.1319475988578
3	20	9.5	0.10365625798702
3	21	10	-0.16747847063001
3	22	10.5	0.063574345642703
3	23	11	-0.044499362204224
3	24	11.5	0.082148059187457
3	25	12	-0.14219326629303
3	26	12.5	0.1488237644406
3	27	13	-0.065550736435689
3	28	13.5	-0.079316186998039
3	29	14	0.026302337227389
3	30	14.5	0.13147831641137
3	31	15	-0.015320131462065
3	32	15.5	-0.065145836169833
3	33	16	-2.988729235147
3	34	16.5	-4.5
3	35	17	-4.5
3	36	17.5	-4.5
3	37	18	-2.8521851647738
3	38	18.5	0.49678282211069
3	39	19	2.0443176290998
3	40	19.5	1.8468951015454
3	41	20	1.9080005102791
3	42	20.5	1.885094670807
3	43	21	1.8054749335861
3	44	21.5	2.2478834550409
3	45	22	1.908491237713
3	46	22.5	1.9492419967055
3	47	23	1.6879667842761
3	49	23.5	-4.5
3	50	24	-4.5
3	51	24.5	-4.5
3	52	25	-4.5
3	53	25.5	-4.5
3	54	26	-3.806708761897
3	55	26.5	0
3	56	27	0
3	57	27.5	0
3	58	28	0
3	59	28.5	0
3	60	29	0
3	61	29.5	0
3	62	30	0
3	63	30.5	0
3	162	31	0
3	163	31.5	0
3	164	32	0
3	165	32.5	0
3	231	33	0
3	232	33.5	0
3	233	34	0
3	234	34.5	0
3	287	35	0
3	288	35.5	0
3	289	36	0
3	290	36.5	0
3	291	37	0
3	292	37.5	0
3	293	38	0
3	294	38.5	0
3	295	39	0
3	296	39.5	0
3	297	40	0
3	298	40.5	0
3	299	41	0
3	300	41.5	0
3	301	42	0
3	302	42.5	0
3	389	43	0
3	390	43.5	0
3	391	44	0
3	392	44.5	0
3	449	45	0
3	450	45.5	0
3	451	46	0
3	452	46.5	0
3	453	47	0
3	454	47.5	0
3	455	48	0
3	456	48.5	0
3	457	49	0
3	458	49.5	0
3	459	50	0
3	460	50.5	0
3	461	51	0
3	462	51.5	0
3	463	52	0
3	464	52.5	0
3	555	53	0
3	556	53.5	0
3	557	54	0
3	558	54.5	0
3	619	55	0
3	620	55.5	0
3	621	56	0
3	622	56.5	0
3	623	57	0
3	624	57.5	0
3	625	58	0
3	626	58.5	0
3	627	59	0
3	628	59.5	0
3	629	60	0
3	630	60.5	0
3	631	61	0
3	632	61.5	0
3	633	62	0
3	634	62.5	0
3	637	63	0
3	638	63.5	0
3	639	64	0
3	640	64.5	0
3	643	65	0
3	644	65.5	0
3	645	66	0
3	646	66.5	0
3	647	67	0
3	648	67.5	0
3	649	68	0
3	650	68.5	0
3	651	69	0
3	652	69.5	0
3	653	70	0
3	750	70.5	0
3	751	71	0
3	752	71.5	0
3	753	72	0
3	754	72.5	0
3	755	73	0
3	757	73.5	2.3535257115719
3	758	74	2.1577927062204
3	759	74.5	1.9362007178919
3	760	75	1.7003106176248
3	761	75.5	1.5910604319349
3	762	76	1.8251757476013
3	763	76.5	2.0731676544156
3	764	77	2.1246941701556
3	765	77.5	1.969353165701
3	766	78	1.9093586211465
3	767	78.5	1.8615439771488
3	768	79	1.8955219118204
3	769	79.5	1.8587998747267
3	770	80	2.0633442060417
3	771	80.5	0.5769127945746
3	772	81	0.055737418453209
3	773	81.5	-0.16687077735551
3	774	82	-0.03803567478899
3	775	82.5	0.077933454881425
3	776	83	0.098039571847764
3	777	83.5	0.034413498584183
3	778	84	-0.069667695681566
3	779	84.5	0.0064184485841565
3	780	85	-2.1970125715682
3	781	85.5	-4.4270186244063
3	782	86	-4.4825033426241
3	783	86.5	-4.5
3	784	87	-3.7815384672349
3	785	87.5	0.085359481237829
3	786	88	2.0477053750493
3	787	88.5	2.0631063498743
3	788	89	2.0445866364101
3	789	89.5	1.6616808005981
3	790	90	1.7795936707454
3	791	90.5	1.9184827585099
3	792	91	1.8950564042758
3	793	91.5	1.6447476527514
3	794	92	1.9897626584256
3	795	92.5	1.749952927893
3	796	93	0.53519056583188
3	797	93.5	0.00051168988924388
3	798	94	-0.063386143678798
3	799	94.5	0.052708709873258
3	800	95	0.0034315496543407
3	801	95.5	-0.16685000613332
3	802	96	0.0095007469924155
3	803	96.5	0.13290499612689
3	804	97	0.012390728625469
3	805	97.5	-0.099133995426818
3	806	98	0.16975639022887
3	807	98.5	-0.17287270773202
3	808	99	0.10940678987652
3	809	99.5	-0.13078911303077
3	810	100	0.067293215706012
3	811	100.5	0.058347413367592
3	812	101	0.070740321287886
3	813	101.5	-0.073472204706633
3	814	102	-2.6362153463965
3	815	102.5	-4.5
3	816	103	-4.5
3	817	103.5	-4.5
3	818	104	-3.2733170111592
3	819	104.5	0.073355418597348
3	820	105	1.9840728065791
3	821	105.5	1.8174992314633
3	822	106	1.7411141335918
3	823	106.5	1.6001320403628
3	824	107	2.2555991873471
3	825	107.5	2.0737552841334
3	826	108	2.2568516132515
3	827	108.5	1.6616938533634
3	828	109	1.9609179711714
3	829	109.5	1.7340500298701
3	830	110	0.2269304251195
3	831	110.5	0.11685128684621
3	832	111	-0.12010949775111
3	833	111.5	-0.084350773440676
3	834	112	-0.026296754479407
3	835	112.5	-0.023241131305696
3	836	113	0.10694402085617
3	837	113.5	0.10437761831563
2	3	1	2.115263038598
2	4	1.5	3.0945791626374
2	5	2	4.1428915371655
2	6	2.5	5.0629807427644
2	7	3	5.9478531782331
2	8	3.5	6.9464636177735
2	9	4	7.8491469426502
2	10	4.5	8.8103893425131
2	11	5	9.885760044167
2	12	5.5	10.854490402071
2	13	6	11.814859634864
2	14	6.5	12.840073701563
2	15	7	13.855067155604
2	16	7.5	13.984191506093
2	17	8	13.941329906802
2	18	8.5	13.879523665546
2	19	9	13.945497464975
2	20	9.5	13.997325593969
2	21	10	13.913586358654
2	22	10.5	13.945373531475
2	23	11	13.923123850373
2	24	11.5	13.964197879967
2	25	12	13.89310124682
2	26	12.5	13.967513129041
2	27	13	13.934737760823
2	28	13.5	13.895079667324
2	29	14	13.908230835937
2	30	14.5	13.973969994143
2	31	15	13.966309928412
2	32	15.5	13.933737010327
2	33	16	12.439372392754
2	34	16.5	10.189372392754
2	35	17	7.9393723927537
2	36	17.5	5.6893723927537
2	37	18	4.2632798103667
2	38	18.5	4.5116712214221
2	39	19	5.533830035972
2	40	19.5	6.4572775867447
2	41	20	7.4112778418842
2	42	20.5	8.3538251772877
2	43	21	9.2565626440808
2	44	21.5	10.380504371601
2	45	22	11.334749990458
2	46	22.5	12.30937098881
2	47	23	13.153354380949
2	49	23.5	10.903354380949
2	50	24	8.6533543809485
2	51	24.5	6.4033543809485
2	52	25	4.1533543809485
2	53	25.5	1.9033543809485
2	54	26	0
2	55	26.5	0
2	56	27	0
2	57	27.5	0
2	58	28	0
2	59	28.5	0
2	60	29	0
2	61	29.5	0
2	62	30	0
2	63	30.5	0
2	162	31	0
2	163	31.5	0
2	164	32	0
2	165	32.5	0
2	231	33	0
2	232	33.5	0
2	233	34	0
2	234	34.5	0
2	287	35	0
2	288	35.5	0
2	289	36	0
2	290	36.5	0
2	291	37	0
2	292	37.5	0
2	293	38	0
2	294	38.5	0
2	295	39	0
2	296	39.5	0
2	297	40	0
2	298	40.5	0
2	299	41	0
2	300	41.5	0
2	301	42	0
2	302	42.5	0
2	389	43	0
2	390	43.5	0
2	391	44	0
2	392	44.5	0
2	449	45	0
2	450	45.5	0
2	451	46	0
2	452	46.5	0
2	453	47	0
2	454	47.5	0
2	455	48	0
2	456	48.5	0
2	457	49	0
2	458	49.5	0
2	459	50	0
2	460	50.5	0
2	461	51	0
2	462	51.5	0
2	463	52	0
2	464	52.5	0
2	555	53	0
2	556	53.5	0
2	557	54	0
2	558	54.5	0
2	619	55	0
2	620	55.5	0
2	621	56	0
2	622	56.5	0
2	623	57	0
2	624	57.5	0
2	625	58	0
2	626	58.5	0
2	627	59	0
2	628	59.5	0
2	629	60	0
2	630	60.5	0
2	631	61	0
2	632	61.5	0
2	633	62	0
2	634	62.5	0
2	637	63	0
2	638	63.5	0
2	639	64	0
2	640	64.5	0
2	643	65	0
2	644	65.5	0
2	645	66	0
2	646	66.5	0
2	647	67	0
2	648	67.5	0
2	649	68	0
2	650	68.5	0
2	651	69	0
2	652	69.5	0
2	653	70	0
2	750	70.5	0
2	751	71	0
2	752	71.5	0
2	753	72	0
2	754	72.5	0
2	755	73	0
2	757	73.5	1.176762855786
2	758	74	2.2556592088962
2	759	74.5	3.2237595678421
2	760	75	4.0739148766545
2	761	75.5	4.869445092622
2	762	76	5.7820329664226
2	763	76.5	6.8186167936304
2	764	77	7.8809638787082
2	765	77.5	8.8656404615587
2	766	78	9.820319772132
2	767	78.5	10.751091760706
2	768	79	11.698852716617
2	769	79.5	12.62825265398
2	770	80	13.659924757001
2	771	80.5	13.948381154288
2	772	81	13.976249863515
2	773	81.5	13.892814474837
2	774	82	13.873796637442
2	775	82.5	13.912763364883
2	776	83	13.961783150807
2	777	83.5	13.978989900099
2	778	84	13.944156052258
2	779	84.5	13.94736527655
2	780	85	12.848858990766
2	781	85.5	10.635349678563
2	782	86	8.3940980072511
2	783	86.5	6.1440980072511
2	784	87	4.2533287736336
2	785	87.5	4.2960085142525
2	786	88	5.3198612017772
2	787	88.5	6.3514143767143
2	788	89	7.3737076949194
2	789	89.5	8.2045480952184
2	790	90	9.0943449305911
2	791	90.5	10.053586309846
2	792	91	11.001114511984
2	793	91.5	11.82348833836
2	794	92	12.818369667572
2	795	92.5	13.693346131519
2	796	93	13.960941414435
2	797	93.5	13.96119725938
2	798	94	13.92950418754
2	799	94.5	13.955858542477
2	800	95	13.957574317304
2	801	95.5	13.874149314237
2	802	96	13.878899687734
2	803	96.5	13.945352185797
2	804	97	13.95154755011
2	805	97.5	13.901980552396
2	806	98	13.986858747511
2	807	98.5	13.900422393645
2	808	99	13.955125788583
2	809	99.5	13.889731232068
2	810	100	13.923377839921
2	811	100.5	13.952551546604
2	812	101	13.987921707248
2	813	101.5	13.951185604895
2	814	102	12.633077931697
2	815	102.5	10.383077931697
2	816	103	8.1330779316967
2	817	103.5	5.8830779316967
2	818	104	4.2464194261171
2	819	104.5	4.2830971354158
2	820	105	5.2751335387053
2	821	105.5	6.183883154437
2	822	106	7.0544402212329
2	823	106.5	7.8545062414143
2	824	107	8.9823058350878
2	825	107.5	10.019183477155
2	826	108	11.14760928378
2	827	108.5	11.978456210462
2	828	109	12.958915196048
2	829	109.5	13.825940210983
2	830	110	13.939405423542
2	831	110.5	13.997831066966
2	832	111	13.93777631809
2	833	111.5	13.89560093137
2	834	112	13.88245255413
2	835	112.5	13.870831988477
2	836	113	13.924303998905
2	837	113.5	13.976492808063
1	2	0.5	26.6
1	3	1	26.6
1	4	1.5	26.6
1	5	2	26.6
1	6	2.5	26.6
1	7	3	26.6
1	8	3.5	26.6
1	9	4	26.6
1	10	4.5	26.6
1	11	5	26.6
1	12	5.5	26.6
1	13	6	26.6
1	14	6.5	26.6
1	15	7	26.6
1	16	7.5	26.6
1	17	8	26.6
1	18	8.5	26.6
1	19	9	26.6
1	20	9.5	26.6
1	21	10	26.6
1	22	10.5	26.6
1	23	11	26.6
1	24	11.5	26.6
1	25	12	26.6
1	26	12.5	26.6
1	27	13	26.6
1	28	13.5	26.6
1	29	14	26.6
1	30	14.5	26.6
1	31	15	26.6
1	32	15.5	26.6
1	33	16	26.6
1	34	16.5	26.6
1	35	17	26.6
1	36	17.5	26.6
1	37	18	26.817524108348
1	38	18.5	28.73169932832
1	39	19	31.303415496986
1	40	19.5	34.352983240077
1	41	20	37.886503924737
1	42	20.5	41.886436537552
1	43	21	46.33977098702
1	44	21.5	51.316944817851
1	45	22	56.806624548068
1	46	22.5	62.781527110424
1	47	23	69.195954476874
1	49	23.5	75.097631667348
1	50	24	79.874308857822
1	51	24.5	83.525986048297
1	52	25	86.052663238771
1	53	25.5	87.454340429245
1	54	26	87.765682181625
1	55	26.5	87.765682181625
1	56	27	87.765682181625
1	57	27.5	87.765682181625
1	58	28	87.765682181625
1	59	28.5	87.765682181625
1	60	29	87.765682181625
1	61	29.5	87.765682181625
1	62	30	87.765682181625
1	63	30.5	87.765682181625
1	162	31	87.765682181625
1	163	31.5	87.765682181625
1	164	32	87.765682181625
1	165	32.5	87.765682181625
1	231	33	87.765682181625
1	232	33.5	87.765682181625
1	233	34	87.765682181625
1	234	34.5	87.765682181625
1	287	35	87.765682181625
1	288	35.5	87.765682181625
1	289	36	87.765682181625
1	290	36.5	87.765682181625
1	291	37	87.765682181625
1	292	37.5	87.765682181625
1	293	38	87.765682181625
1	294	38.5	87.765682181625
1	295	39	87.765682181625
1	296	39.5	87.765682181625
1	297	40	87.765682181625
1	298	40.5	87.765682181625
1	299	41	87.765682181625
1	300	41.5	87.765682181625
1	301	42	87.765682181625
1	302	42.5	87.765682181625
1	389	43	87.765682181625
1	390	43.5	87.765682181625
1	391	44	87.765682181625
1	392	44.5	87.765682181625
1	449	45	87.765682181625
1	450	45.5	87.765682181625
1	451	46	87.765682181625
1	452	46.5	87.765682181625
1	453	47	87.765682181625
1	454	47.5	87.765682181625
1	455	48	87.765682181625
1	456	48.5	87.765682181625
1	457	49	87.765682181625
1	458	49.5	87.765682181625
1	459	50	87.765682181625
1	460	50.5	87.765682181625
1	461	51	87.765682181625
1	462	51.5	87.765682181625
1	463	52	87.765682181625
1	464	52.5	87.765682181625
1	555	53	87.765682181625
1	556	53.5	87.765682181625
1	557	54	87.765682181625
1	558	54.5	87.765682181625
1	619	55	87.765682181625
1	620	55.5	87.765682181625
1	621	56	87.765682181625
1	622	56.5	87.765682181625
1	623	57	87.765682181625
1	624	57.5	87.765682181625
1	625	58	87.765682181625
1	626	58.5	87.765682181625
1	627	59	87.765682181625
1	628	59.5	87.765682181625
1	629	60	87.765682181625
1	630	60.5	87.765682181625
1	631	61	87.765682181625
1	632	61.5	87.765682181625
1	633	62	87.765682181625
1	634	62.5	87.765682181625
1	637	63	87.765682181625
1	638	63.5	87.765682181625
1	639	64	87.765682181625
1	640	64.5	87.765682181625
1	643	65	87.765682181625
1	644	65.5	87.765682181625
1	645	66	87.765682181625
1	646	66.5	87.765682181625
1	647	67	87.765682181625
1	648	67.5	87.765682181625
1	649	68	87.765682181625
1	650	68.5	87.765682181625
1	651	69	87.765682181625
1	652	69.5	87.765682181625
1	653	70	87.765682181625
1	750	70.5	87.765682181625
1	751	71	87.765682181625
1	752	71.5	87.765682181625
1	753	72	87.765682181625
1	754	72.5	87.765682181625
1	755	73	87.765682181625
1	757	73.5	88.124512937693
1	758	74	89.039031945634
1	759	74.5	90.475156256328
1	760	75	92.351817316464
1	761	75.5	94.626734666225
1	762	76	97.332859684514
1	763	76.5	100.53417471347
1	764	77	104.25884733084
1	765	77.5	108.50426528895
1	766	78	113.22485788453
1	767	78.5	118.41883600532
1	768	79	124.09870984998
1	769	79.5	130.22749348036
1	770	80	136.85272607147
1	771	80.5	143.8268836613
1	772	81	150.80335103022
1	773	81.5	157.75063214358
1	774	82	164.70365065985
1	775	82.5	171.66904885248
1	776	83	178.62429605959
1	777	83.5	185.59957793886
1	778	84	192.56379005041
1	779	84.5	199.51997399997
1	780	85	206.28490685172
1	781	85.5	212.04893262222
1	782	86	216.69248229437
1	783	86.5	220.214531298
1	784	87	222.62125638756
1	785	87.5	223.4
1	786	88	223.4
1	787	88.5	223.4
1	788	89	223.4
1	789	89.5	223.4
1	790	90	223.4
1	791	90.5	223.4
1	792	91	223.4
1	793	91.5	223.4
1	794	92	223.4
1	795	92.5	223.4
1	796	93	223.4
1	797	93.5	223.4
1	798	94	223.4
1	799	94.5	223.4
1	800	95	223.4
1	801	95.5	223.4
1	802	96	223.4
1	803	96.5	223.4
1	804	97	223.4
1	805	97.5	223.4
1	806	98	223.4
1	807	98.5	223.4
1	808	99	223.4
1	809	99.5	223.4
1	810	100	223.4
1	811	100.5	223.4
1	812	101	223.4
1	813	101.5	223.4
1	814	102	223.4
1	815	102.5	223.4
1	816	103	223.4
1	817	103.5	223.4
1	818	104	223.22365840182
1	819	104.5	221.38076961444
1	820	105	218.96806561259
1	821	105.5	216.07846726564
1	822	106	212.71057931102
1	823	106.5	208.94353989857
1	824	107	204.68216499981
1	825	107.5	199.88261482439
1	826	108	194.52278695407
1	827	108.5	188.7091335429
1	828	109	182.40198652023
1	829	109.5	175.66987889398
1	830	110	168.70402815171
1	831	110.5	161.73233759356
1	832	111	154.76981473678
1	833	111.5	147.80393090232
1	834	112	140.83422042614
1	835	112.5	133.87129089508
1	836	113	126.91860023559
1	837	113.5	119.93390965957
0	2	0.5	33.045700664058
0	3	1	33.874628598893
0	4	1.5	35.225206334222
0	5	2	37.098052699922
0	6	2.5	39.465595673038
0	7	3	42.243659773893
0	8	3.5	45.53622221224
0	9	4	49.275372089118
0	10	4.5	53.487625097959
0	11	5	58.210615213868
0	12	5.5	63.428504190748
0	13	6	69.135395205362
0	14	6.5	75.366658706382
0	15	7	82.101074660776
0	16	7.5	89.062090308755
0	17	8	96.027638410753
0	18	8.5	102.97927587136
0	19	9	109.95155699146
0	20	9.5	116.91809169743
0	21	10	123.90110725924
0	22	10.5	130.86563344892
0	23	11	137.83264173408
0	24	11.5	144.81157002514
0	25	12	151.77764245481
0	26	12.5	158.75686652296
0	27	13	165.72321317659
0	28	13.5	172.67217653157
0	29	14	179.64176114611
0	30	14.5	186.62645228922
0	31	15	193.58982376242
0	32	15.5	200.55350044412
0	33	16	207.18328756848
0	34	16.5	212.72797376486
0	35	17	217.14765996124
0	36	17.5	220.44234615761
0	37	18	222.69587351391
0	38	18.5	223.4
0	39	19	223.4
0	40	19.5	223.4
0	41	20	223.4
0	42	20.5	223.4
0	43	21	223.4
0	44	21.5	223.4
0	45	22	223.4
0	46	22.5	223.4
0	47	23	223.4
0	49	23.5	223.4
0	50	24	223.4
0	51	24.5	223.4
0	52	25	223.4
0	53	25.5	223.4
0	54	26	223.4
0	55	26.5	223.4
0	56	27	223.4
0	57	27.5	223.4
0	58	28	223.4
0	59	28.5	223.4
0	60	29	223.4
0	61	29.5	223.4
0	62	30	223.4
0	63	30.5	223.4
0	162	31	223.4
0	163	31.5	223.4
0	164	32	223.4
0	165	32.5	223.4
0	231	33	223.4
0	232	33.5	223.4
0	233	34	223.4
0	234	34.5	223.4
0	287	35	223.4
0	288	35.5	223.4
0	289	36	223.4
0	290	36.5	223.4
0	291	37	223.4
0	292	37.5	223.4
0	293	38	223.4
0	294	38.5	223.4
0	295	39	223.4
0	296	39.5	223.4
0	297	40	223.4
0	298	40.5	223.4
[...]
16	841	115.5	184.45710576985
16	842	116	177.95293052504
16	843	116.5	171.05927491996
16	844	117	164.08737028584
16	845	117.5	157.12003124158
16	846	118	150.15234953736
16	847	118.5	143.18200502022
16	848	119	136.22179908992
16	849	119.5	129.2546081515
16	850	120	122.28678196944
15	298	40.5	33.04829800309
15	299	41	33.865560685096
15	300	41.5	35.173174851121
15	301	42	36.929147294642
15	302	42.5	39.205665813481
15	389	43	41.984224780232
15	390	43.5	45.22401134966
15	391	44	48.916927284708
15	392	44.5	53.068468268946
15	449	45	57.687777315092
15	450	45.5	62.85257607127
15	451	46	68.518812186217
15	452	46.5	74.721905214668
15	453	47	81.423685997838
15	454	47.5	88.389457608384
15	455	48	95.355208873308
15	456	48.5	102.33026161892
15	457	49	109.29493679785
15	458	49.5	116.25934951843
15	459	50	123.22561430954
15	460	50.5	130.19496422006
15	461	51	137.16843833286
15	462	51.5	144.13047333233
15	463	52	151.09372306464
15	464	52.5	158.06342635573
15	555	53	165.03167698891
15	556	53.5	171.99950629039
15	557	54	178.96233000987
15	558	54.5	185.93556177368
15	619	55	192.90759245353
15	620	55.5	199.88402597734
15	621	56	206.53612113178
15	622	56.5	212.12618826689
15	623	57	216.591255402
15	624	57.5	219.93132253711
15	625	58	222.18139763804
15	626	58.5	223.36319322961
15	627	59	223.4
15	628	59.5	223.4
15	629	60	223.4
15	630	60.5	223.4
15	631	61	223.4
15	632	61.5	223.4
15	633	62	223.4
15	634	62.5	223.4
15	637	63	223.4
15	638	63.5	223.4
15	639	64	223.4
15	640	64.5	223.4
15	643	65	223.4
15	644	65.5	223.4
15	645	66	223.4
15	646	66.5	223.4
15	647	67	223.4
15	648	67.5	223.4
15	649	68	223.4
15	650	68.5	223.4
15	651	69	223.4
15	652	69.5	223.4
15	653	70	223.4
15	750	70.5	223.4
15	751	71	223.4
15	752	71.5	223.4
15	753	72	223.4
15	754	72.5	223.4
15	755	73	223.4
15	757	73.5	223.4
15	758	74	223.4
15	759	74.5	223.4
15	760	75	223.4
15	761	75.5	223.4
15	762	76	223.4
15	763	76.5	223.4
15	764	77	223.4
15	765	77.5	223.4
15	766	78	223.4
15	767	78.5	223.4
15	768	79	223.4
15	769	79.5	223.4
15	770	80	223.4
15	771	80.5	223.4
15	772	81	223.4
15	773	81.5	223.4
15	774	82	223.4
15	775	82.5	223.4
15	776	83	223.4
15	777	83.5	223.4
15	778	84	223.4
15	779	84.5	223.4
15	780	85	223.4
15	781	85.5	223.4
15	782	86	223.4
15	783	86.5	223.4
15	784	87	223.4
15	785	87.5	223.4
15	786	88	223.4
15	787	88.5	223.4
15	788	89	223.4
15	789	89.5	223.4
15	790	90	223.4
15	791	90.5	223.4
15	792	91	223.4
15	793	91.5	223.4
15	794	92	223.4
15	795	92.5	223.4
15	796	93	223.4
15	797	93.5	222.77957134482
15	798	94	220.79892618817
15	799	94.5	218.34465110169
15	800	95	215.4104138292
15	801	95.5	211.99241038894
15	802	96	208.11191623015
15	803	96.5	203.81181269216
15	804	97	198.98968706165
15	805	97.5	193.60332827469
15	806	98	187.73576228897
15	807	98.5	181.37401783285
15	808	99	174.54948011039
15	809	99.5	167.58637972659
15	810	100	160.61802941091
15	811	100.5	153.66272291792
15	812	101	146.69248275195
15	813	101.5	139.72562636048
15	814	102	132.76123193131
15	815	102.5	125.78920152154
15	816	103	118.8126580214
15	817	103.5	111.84701723252
15	818	104	104.88110324044
15	819	104.5	97.915354885349
15	820	105	90.95002175727
15	821	105.5	83.987425872237
15	822	106	77.018170826414
15	823	106.5	70.048139361593
15	824	107	63.073342528068
15	825	107.5	56.10633747538
15	826	108	49.149567892131
15	827	108.5	42.601509359364
15	828	109	37.139565091354
15	829	109.5	32.802620823344
15	830	110	29.590676555334
15	831	110.5	27.440887994027
15	832	111	26.6
15	833	111.5	26.6
15	834	112	26.6
15	835	112.5	26.6
15	836	113	26.6
15	837	113.5	26.6
15	838	114	26.6
15	839	114.5	26.6
15	840	115	26.6
15	841	115.5	26.6
15	842	116	26.6
15	843	116.5	26.6
15	844	117	26.6
15	845	117.5	26.6
15	846	118	26.6
15	847	118.5	26.6
15	848	119	26.6
15	849	119.5	26.6
15	850	120	26.6
29	833	111.5	2.8860191013657
29	834	112	3.2359175823904
29	835	112.5	3.6945880945752
29	836	113	4.1767960901651
29	837	113.5	5.014880294007
29	838	114	5.779874751329
29	839	114.5	6.1017184708979
29	840	115	6.935221301667
29	841	115.5	7.989435739488
29	842	116	7.5328952171623
29	843	116.5	8.1265825074338
29	844	117	6.2976940432996
29	845	117.5	2.0597331264151
29	846	118	2.0392680668411
29	847	118.5	1.8329096821206
29	848	119	2.5984926651848
29	849	119.5	1.8693504410964
29	850	120	1.9889198310103
29	851	120.5	2.1046698075436
29	852	121	1.6956174132435
29	853	121.5	2.486443391434
29	854	122	1.9004870449396
29	855	122.5	1.6611421921335
29	856	123	2.2722404997539
29	857	123.5	2.3476028612268
29	858	124	2.069253001332
29	859	124.5	1.697299481961
29	860	125	2.0014491405126
29	861	125.5	2.5320566042067
29	862	126	0.973
29	863	126.5	0.973
29	864	127	0.973
29	865	127.5	0.973
29	866	128	0.973
29	867	128.5	2.1076497679277
29	868	129	4.7285290859371
29	869	129.5	4.5081368660833
29	870	130	5.2438705236582
29	871	130.5	6.62060741067
29	872	131	6.3583748079227
29	873	131.5	6.8960064592169
29	874	132	6.6614175215072
29	875	132.5	8.2601920758008
29	876	133	8.1552389969813
29	877	133.5	3.0714937555837
29	878	134	2.6612672915176
29	879	134.5	1.9002175576922
29	880	135	1.6626967505718
29	881	135.5	2.0087953377806
29	882	136	2.2580456800936
29	883	136.5	2.0202610811805
29	884	137	2.3368332644734
29	885	137.5	1.6001115877331
29	886	138	2.2291191180319
29	887	138.5	1.5808480754004
29	888	139	2.3194747050029
29	889	139.5	1.9566829207083
29	890	140	1.8754777630358
29	891	140.5	2.4026053737042
29	892	141	1.582552456354
29	893	141.5	2.4147020607153
29	894	142	2.3600423182957
29	895	142.5	0.973
29	896	143	0.973
29	897	143.5	0.973
29	898	144	0.973
29	899	144.5	0.973
29	900	145	1.2943675320146
29	901	145.5	3.2496467457627
29	902	146	4.6370649235972
29	903	146.5	4.6786372222899
29	904	147	5.3880075626664
29	905	147.5	6.7229275074749
29	906	148	5.4991575395669
29	907	148.5	7.0805659100371
29	908	149	7.2593343750494
29	909	149.5	7.1299494372723
29	910	150	8.6009028911277
29	911	150.5	2.5137257563514
29	912	151	1.9317898306891
29	913	151.5	1.8485858417618
29	914	152	2.6970632455651
29	915	152.5	2.1982865913371
29	916	153	1.3914813839143
29	917	153.5	2.0853799724763
29	918	154	2.4730214231387
29	919	154.5	2.0223422078523
29	920	155	1.9545312852833
29	921	155.5	2.1693046512338
29	922	156	1.4752524483825
29	923	156.5	2.3525404878387
29	924	157	2.2466129817289
29	925	157.5	1.6604169689311
29	926	158	1.997057033465
29	927	158.5	2.1421608454288
29	928	159	1.7698522087329
29	929	159.5	0.973
29	930	160	0.973
29	931	160.5	0.973
29	932	161	0.973
29	933	161.5	0.973
29	934	162	1.8191922849003
29	935	162.5	4.1210616316961
29	936	163	4.672886273455
29	937	163.5	5.2326620744072
29	938	164	5.5303813502459
29	939	164.5	6.9532464258876
29	940	165	6.1183799078543
29	941	165.5	7.3388773258864
29	942	166	7.346817156024
29	943	166.5	8.0997932810803
29	944	167	5.3181387097087
29	945	167.5	2.4624900482002
29	946	168	1.7263656826195
29	947	168.5	1.7525789654818
29	948	169	1.9563246674644
29	949	169.5	2.4568746736045
29	950	170	1.8116063240673
29	951	170.5	2.1931533573116
28	833	111.5	2.1196098403912
28	834	112	1.9266781691648
28	835	112.5	1.8991953494586
28	836	113	1.8954622388538
28	837	113.5	2.0729035854479
28	838	114	2.1533361872891
28	839	114.5	2.0289297286514
28	840	115	2.1244047789928
28	841	115.5	2.2644998509204
28	842	116	1.9071504722768
28	843	116.5	1.9261885568639
28	844	117	1.2734588350816
28	845	117.5	0.0089106441382327
28	846	118	0.0027645019534965
28	847	118.5	-0.058017847449516
28	848	119	0.16722220819909
28	849	119.5	-0.048723765891044
28	850	120	-0.012951405732892
28	851	120.5	0.02117173662409
28	852	121	-0.099365689032709
28	853	121.5	0.13405286830384
28	854	122	-0.039504975760355
28	855	122.5	-0.1094904277008
28	856	123	0.07177813060116
28	857	123.5	0.092516739522107
28	858	124	0.0097066157124921
28	859	124.5	-0.099555386174469
28	860	125	-0.0088122075703012
28	861	125.5	0.14631801082753
28	862	126	-3.7870547714055
28	863	126.5	-4.3960687387967
28	864	127	-4.5
28	865	127.5	-4.4989323827764
28	866	128	-1.8938537200075
28	867	128.5	0.65588918897789
28	868	129	2.3127507155854
28	869	129.5	1.8367947503366
28	870	130	1.9632957101613
28	871	130.5	2.3099834981095
28	872	131	1.9458256581658
28	873	131.5	1.9475248922361
28	874	132	1.6995421312563
28	875	132.5	2.051097697881
28	876	133	1.8539272729075
28	877	133.5	0.31117701278238
28	878	134	0.18469747996889
28	879	134.5	-0.040392607022074
28	880	135	-0.10968446714804
28	881	135.5	-0.0064197571901587
28	882	136	0.066721567544153
28	883	136.5	-0.0039471226837478
28	884	137	0.088599429167807
28	885	137.5	-0.12851446691435
28	886	138	0.057875413522122
28	887	138.5	-0.13346862067003
28	888	139	0.085611185492013
28	889	139.5	-0.022112584812565
28	890	140	-0.045696584391408
28	891	140.5	0.10956890374422
28	892	141	-0.13290192253422
28	893	141.5	0.11353889443446
28	894	142	0.095493276570924
28	895	142.5	-1.0685237004857
28	896	143	-4.4848612179514
28	897	143.5	-4.4220302149421
28	898	144	-4.5
28	899	144.5	-4.5
28	900	145	-0.037333037629724
28	901	145.5	1.487152229608
28	902	146	2.1129957595468
28	903	146.5	1.8355545250932
28	904	147	1.9452866511187
28	905	147.5	2.2681706034858
28	906	148	1.5652561262902
28	907	148.5	1.9873341675336
28	908	149	1.8672134660883
28	909	149.5	1.6788903428381
28	910	150	1.9713530288311
28	911	150.5	0.14410279492551
28	912	151	-0.028988441349938
28	913	151.5	-0.053116455813871
28	914	152	0.19622189428657
28	915	152.5	0.047321458016523
28	916	153	-0.19024809164461
28	917	153.5	0.016586627620271
28	918	154	0.12963239436969
28	919	154.5	-0.0041090881172572
28	920	155	-0.023901982060636
28	921	155.5	0.039274111073464
28	922	156	-0.16517513663974
28	923	156.5	0.094957699491644
28	924	157	0.062354153082705
28	925	157.5	-0.11042350107338
28	926	158	-0.0099458805518218
28	927	158.5	0.032778475922534
28	928	159	-0.077134339916519
28	929	159.5	-2.352847390481
28	930	160	-4.3401724683166
28	931	160.5	-4.4611393407989
28	932	161	-4.5
28	933	161.5	-3.361413105047
28	934	162	0.43100360071752
28	935	162.5	2.0146996635105
28	936	163	2.0166583982017
28	937	163.5	2.019908430879
28	938	164	1.9085903481673
28	939	164.5	2.2599075639853
28	940	165	1.7223086067615
28	941	165.5	1.983259424679
28	942	166	1.8149552220851
28	943	166.5	1.8921226884332
28	944	167	0.9809852339484
28	945	167.5	0.12662163149565
28	946	168	-0.090890937941147
28	947	168.5	-0.082078068954871
28	948	169	-0.020896349246613
28	949	169.5	0.12628518705722
28	950	170	-0.064960512085815
28	951	170.5	0.048067702804691
27	832	111	2.1116852246857
27	833	111.5	3.1714901448812
27	834	112	4.1348292294636
27	835	112.5	5.0844269041929
27	836	113	6.0321580236198
27	837	113.5	7.0686098163438
27	838	114	8.1452779099883
27	839	114.5	9.1597427743141
27	840	115	10.22194516381
27	841	115.5	11.354195089271
27	842	116	12.307770325409
27	843	116.5	13.270864603841
27	844	117	13.907594021382
27	845	117.5	13.912049343451
27	846	118	13.913431594428
27	847	118.5	13.884422670703
27	848	119	13.968033774802
27	849	119.5	13.943671891857
27	850	120	13.93719618899
27	851	120.5	13.947782057303
27	852	121	13.898099212786
27	853	121.5	13.965125646938
27	854	122	13.945373159058
27	855	122.5	13.890627945208
27	856	123	13.926517010508
27	857	123.5	13.972775380269
27	858	124	13.977628688125
27	859	124.5	13.927850995038
27	860	125	13.923444891253
27	861	125.5	13.996603896667
27	862	126	12.103076510964
27	863	126.5	9.9050421415657
27	864	127	7.6550421415657
27	865	127.5	5.4055759501775
27	866	128	4.4586490901738
27	867	128.5	4.7865936846627
27	868	129	5.9429690424554
27	869	129.5	6.8613664176237
27	870	130	7.8430142727043
27	871	130.5	8.9980060217591
27	872	131	9.970918850842
27	873	131.5	10.94468129696
27	874	132	11.794452362588
27	875	132.5	12.820001211529
27	876	133	13.746964847982
27	877	133.5	13.902553354374
27	878	134	13.994902094358
27	879	134.5	13.974705790847
27	880	135	13.919863557273
27	881	135.5	13.916653678678
27	882	136	13.95001446245
27	883	136.5	13.948040901108
27	884	137	13.992340615692
27	885	137.5	13.928083382235
27	886	138	13.957021088996
27	887	138.5	13.890286778661
27	888	139	13.933092371407
27	889	139.5	13.922036079001
27	890	140	13.899187786805
27	891	140.5	13.953972238677
27	892	141	13.88752127741
27	893	141.5	13.944290724627
27	894	142	13.992037362913
27	895	142.5	13.45777551267
27	896	143	11.215344903694
27	897	143.5	9.0043297962231
27	898	144	6.7543297962231
27	899	144.5	4.5043297962231
27	900	145	4.4856632774082
27	901	145.5	5.2292393922122
27	902	146	6.2857372719856
27	903	146.5	7.2035145345322
27	904	147	8.1761578600915
27	905	147.5	9.3102431618344
27	906	148	10.092871224979
27	907	148.5	11.086538308746
27	908	149	12.02014504179
27	909	149.5	12.859590213209
27	910	150	13.845266727625
27	911	150.5	13.917318125088
27	912	151	13.902823904413
27	913	151.5	13.876265676506
27	914	152	13.974376623649
27	915	152.5	13.998037352657
27	916	153	13.902913306835
27	917	153.5	13.911206620645
27	918	154	13.97602281783
27	919	154.5	13.973968273771
27	920	155	13.962017282741
27	921	155.5	13.981654338278
27	922	156	13.899066769958
27	923	156.5	13.946545619704
27	924	157	13.977722696245
27	925	157.5	13.922510945708
27	926	158	13.917538005433
27	927	158.5	13.933927243394
27	928	159	13.895360073436
27	929	159.5	12.718936378195
27	930	160	10.548850144037
27	931	160.5	8.3182804736373
27	932	161	6.0682804736373
27	933	161.5	4.3875739211138
27	934	162	4.6030757214726
27	935	162.5	5.6104255532279
27	936	163	6.6187547523287
27	937	163.5	7.6287089677682
27	938	164	8.5830041418519
27	939	164.5	9.7129579238446
27	940	165	10.574112227225
27	941	165.5	11.565741939565
27	942	166	12.473219550607
27	943	166.5	13.419280894824
27	944	167	13.909773511798
27	945	167.5	13.973084327546
27	946	168	13.927638858575
27	947	168.5	13.886599824098
27	948	169	13.876151649475
27	949	169.5	13.939294243003
27	950	170	13.90681398696
27	951	170.5	13.930847838363
26	831	110.5	26.6
26	832	111	26.6
26	833	111.5	26.6
26	834	112	26.6
26	835	112.5	26.6
26	836	113	26.6
26	837	113.5	26.6
26	838	114	26.6
26	839	114.5	26.6
26	840	115	26.6
26	841	115.5	26.6
26	842	116	26.6
26	843	116.5	26.6
26	844	117	26.6
26	845	117.5	26.6
26	846	118	26.6
26	847	118.5	26.6
26	848	119	26.6
26	849	119.5	26.6
26	850	120	26.6
26	851	120.5	26.6
26	852	121	26.6
26	853	121.5	26.6
26	854	122	26.6
26	855	122.5	26.6
26	856	123	26.6
26	857	123.5	26.6
26	858	124	26.6
26	859	124.5	26.6
26	860	125	26.6
26	861	125.5	26.6
26	862	126	26.6
26	863	126.5	26.6
26	864	127	26.6
26	865	127.5	26.6
26	866	128	27.35299120123
26	867	128.5	29.585588788041
26	868	129	32.318411468399
26	869	129.5	35.565093534798
26	870	130	39.303438341253
26	871	130.5	43.574130062404
26	872	131	48.369940588779
26	873	131.5	53.639009099969
26	874	132	59.36169879084
26	875	132.5	65.547847922926
26	876	133	72.254296435917
26	877	133.5	79.223698268791
26	878	134	86.191006839264
26	879	134.5	93.157658121415
26	880	135	100.12235088874
26	881	135.5	107.08292572139
26	882	136	114.05208746494
26	883	136.5	121.01887804365
26	884	137	127.9953854278
26	885	137.5	134.97063151842
26	886	138	141.95173184954
26	887	138.5	148.91402784469
26	888	139	155.87822217415
26	889	139.5	162.85220574811
26	890	140	169.82800937972
26	891	140.5	176.79465755693
26	892	141	183.73901227357
26	893	141.5	190.71115072672
26	894	142	197.6775463513
26	895	142.5	204.59253315874
26	896	143	210.64795766775
26	897	143.5	215.59025625721
26	898	144	219.41742115532
26	899	144.5	222.11642358532
26	900	145	223.39520190773
26	901	145.5	223.4
26	902	146	223.4
26	903	146.5	223.4
26	904	147	223.4
26	905	147.5	223.4
26	906	148	223.4
26	907	148.5	223.4
26	908	149	223.4
26	909	149.5	223.4
26	910	150	223.4
26	911	150.5	223.4
26	912	151	223.4
26	913	151.5	223.4
26	914	152	223.4
26	915	152.5	223.4
26	916	153	223.4
26	917	153.5	223.4
26	918	154	223.4
26	919	154.5	223.4
26	920	155	223.4
26	921	155.5	223.4
26	922	156	223.4
26	923	156.5	223.4
26	924	157	223.4
26	925	157.5	223.4
26	926	158	223.4
26	927	158.5	223.4
26	928	159	223.4
26	929	159.5	223.4
26	930	160	223.4
26	931	160.5	223.4
26	932	161	223.4
26	933	161.5	223.20872872053
26	934	162	221.26551122978
26	935	162.5	218.66216713471
26	936	163	215.53448478862
26	937	163.5	211.91549504931
26	938	164	207.82765839625
26	939	164.5	203.18942075577
26	940	165	198.08356755879
26	941	165.5	192.47895188098
26	942	166	186.4113524443
26	943	166.5	179.88549215289
26	944	167	172.94880769917
26	945	167.5	165.97913171689
26	946	168	159.00056287918
26	947	168.5	152.03770154316
26	948	169	145.07616654375
26	949	169.5	138.1120898896
26	950	170	131.14212903091
26	951	170.5	124.16887324975
25	831	110.5	33.044468976029
25	832	111	33.875211090725
25	833	111.5	35.255808832644
25	834	112	37.141691487972
25	835	112.5	39.495670443261
25	836	113	42.315856637699
25	837	113.5	45.65625583733
25	838	114	49.505821424737
25	839	114.5	53.884461325385
25	840	115	58.77606314103
25	841	115.5	64.218464921203
25	842	116	70.172228956575
25	843	116.5	76.615498388061
25	844	117	83.480487288212
25	845	117.5	90.451367558384
25	846	118	97.407077065271
25	847	118.5	104.37200596419
25	848	119	111.34441290206
25	849	119.5	118.31457374654
25	850	120	125.27914418274
25	851	120.5	132.25619448359
25	852	121	139.21666472198
25	853	121.5	146.18517964227
25	854	122	153.14624738173
25	855	122.5	160.1031574268
25	856	123	167.07237200904
25	857	123.5	174.0457324968
25	858	124	181.00722154899
25	859	124.5	187.9673248791
25	860	125	194.92921840504
25	861	125.5	201.90594227333
25	862	126	208.3942289114
25	863	126.5	213.79674998219
25	864	127	218.07427105297
25	865	127.5	221.22684550461
25	866	128	223.21179472074
25	867	128.5	223.4
25	868	129	223.4
25	869	129.5	223.4
25	870	130	223.4
25	871	130.5	223.4
25	872	131	223.4
25	873	131.5	223.4
25	874	132	223.4
25	875	132.5	223.4
25	876	133	223.4
25	877	133.5	223.4
25	878	134	223.4
25	879	134.5	223.4
25	880	135	223.4
25	881	135.5	223.4
25	882	136	223.4
25	883	136.5	223.4
25	884	137	223.4
25	885	137.5	223.4
25	886	138	223.4
25	887	138.5	223.4
25	888	139	223.4
25	889	139.5	223.4
25	890	140	223.4
25	891	140.5	223.4
25	892	141	223.4
25	893	141.5	223.4
25	894	142	223.4
25	895	142.5	223.4
25	896	143	223.4
25	897	143.5	223.4
25	898	144	223.4
25	899	144.5	223.35479663067
25	900	145	221.83358664592
25	901	145.5	219.40112371437
25	902	146	216.47589401787
25	903	146.5	213.07646925711
25	904	147	209.19696884773
25	905	147.5	204.76993540142
25	906	148	199.8620256355
25	907	148.5	194.52948273903
25	908	149	188.70153641961
25	909	149.5	182.43344463143
25	910	150	175.71421956323
25	911	150.5	168.75919197485
25	912	151	161.79055303032
25	913	151.5	154.82509753037
25	914	152	147.85138557673
25	915	152.5	140.88231523488
25	916	153	133.9271516992
25	917	153.5	126.95752408753
25	918	154	119.98245751644
25	919	154.5	113.01893978568
25	920	155	106.05165892252
25	921	155.5	99.078436985235
25	922	156	92.113717989584
25	923	156.5	85.136966934593
25	924	157	78.157410100734
25	925	157.5	71.177749960192
25	926	158	64.208132239133
25	927	158.5	57.24495648552
25	928	159	50.280041980221
25	929	159.5	43.550539161385
25	930	160	37.844302415527
25	931	160.5	33.238553446929
25	932	161	29.75441321011
25	933	161.5	27.347881200875
25	934	162	26.6
25	935	162.5	26.6
25	936	163	26.6
25	937	163.5	26.6
25	938	164	26.6
25	939	164.5	26.6
25	940	165	26.6
25	941	165.5	26.6
25	942	166	26.6
25	943	166.5	26.6
25	944	167	26.6
25	945	167.5	26.6
25	946	168	26.6
25	947	168.5	26.6
25	948	169	26.6
25	949	169.5	26.6
25	950	170	26.6
25	951	170.5	26.6

