version 2
run Program3-0-20220719-00:46:19-9400
attr configname Program3
attr datetime 20220719-00:46:19
attr experiment Program3
attr inifile omnetpp.ini
attr iterationvars ""
attr iterationvarsf ""
attr measurement ""
attr network FinalProjectNetwork
attr processid 9400
attr repetition 0
attr replication #0
attr resultdir results
attr runnumber 0
attr seedset 0
param *.playgroundSizeX 3508m
param *.playgroundSizeY 1211m
param *.playgroundSizeZ 50m
param *.rsu[0].mobility.x 1130
param *.rsu[0].mobility.y 470
param *.rsu[0].mobility.z 3
param *.rsu[1].mobility.x 2300
param *.rsu[1].mobility.y 750
param *.rsu[1].mobility.z 3
param *.rsu[2].mobility.x 1700
param *.rsu[2].mobility.y 500
param *.rsu[2].mobility.z 3
param *.rsu[3].mobility.x 1200
param *.rsu[3].mobility.y 930
param *.rsu[3].mobility.z 3
param *.manager.launchConfig "xmldoc(\"maamora.launchd.xml\")"
param *.node[*0].veinsmobility.accidentDuration 100s
param *.playgroundSizeX 300m
param *.playgroundSizeY 600m
param *.playgroundSizeZ 50m
param *.annotations.draw true
param *.obstacles.obstacles "xmldoc(\"config.xml\", \"//AnalogueModel[@type='SimpleObstacleShadowing']/obstacles\")"
param *.manager.updateInterval 0.5s
param *.manager.host "\"localhost\""
param *.manager.port 9999
param *.manager.autoShutdown true
param *.manager.launchConfig "xmldoc(\"streettest.launchd.xml\")"
param *.rsu[0].mobility.x 35
param *.rsu[0].mobility.y 135
param *.rsu[0].mobility.z 3
param *.rsu[1].mobility.x 135
param *.rsu[1].mobility.y 40
param *.rsu[1].mobility.z 3
param *.rsu[2].mobility.x 135
param *.rsu[2].mobility.y 210
param *.rsu[2].mobility.z 3
param *.rsu[3].mobility.x 215
param *.rsu[3].mobility.y 135
param *.rsu[3].mobility.z 3
param *.rsu[*].applType "\"RsuApp\""
param *.rsu[*].appl.headerLength "80 bit"
param *.rsu[*].appl.sendBeacons false
param *.rsu[*].appl.dataOnSch false
param *.rsu[*].appl.beaconInterval 1s
param *.rsu[*].appl.beaconUserPriority 7
param *.rsu[*].appl.dataUserPriority 5
param *.rsu[*].nic.phy80211p.antennaOffsetZ "0 m"
param *.connectionManager.sendDirect true
param *.connectionManager.maxInterfDist 2600m
param *.connectionManager.drawMaxIntfDist false
param *.**.nic.mac1609_4.useServiceChannel false
param *.**.nic.mac1609_4.txPower 80mW
param *.**.nic.mac1609_4.bitrate 6Mbps
param *.**.nic.phy80211p.minPowerLevel -110dBm
param *.**.nic.phy80211p.useNoiseFloor true
param *.**.nic.phy80211p.noiseFloor -98dBm
param *.**.nic.phy80211p.decider "xmldoc(\"config.xml\")"
param *.**.nic.phy80211p.analogueModels "xmldoc(\"config.xml\")"
param *.**.nic.phy80211p.usePropagationDelay true
param *.**.nic.phy80211p.antenna "xmldoc(\"antenna.xml\", \"/root/Antenna[@id='monopole']\")"
param *.node[*].nic.phy80211p.antennaOffsetY "0 m"
param *.node[*].nic.phy80211p.antennaOffsetZ "1.895 m"
param *.node[*].applType "\"VehicleApp\""
param *.node[*].appl.headerLength "80 bit"
param *.node[*].appl.sendBeacons false
param *.node[*].appl.dataOnSch false
param *.node[*].appl.beaconInterval 1s
param *.node[*].veinsmobility.x 0
param *.node[*].veinsmobility.y 0
param *.node[*].veinsmobility.z 0
param *.node[*].veinsmobility.setHostSpeed false
param *.node[*0].veinsmobility.accidentCount 1
param *.node[*0].veinsmobility.accidentStart 23s
param *.node[*0].veinsmobility.accidentDuration 50s

vector 0 FinalProjectNetwork.node[0].veinsmobility posx ETV
vector 1 FinalProjectNetwork.node[0].veinsmobility posy ETV
0	2	0.5	1060.7097406462
1	2	0.5	531.19410374151
vector 2 FinalProjectNetwork.node[0].veinsmobility speed ETV
vector 3 FinalProjectNetwork.node[0].veinsmobility acceleration ETV
vector 4 FinalProjectNetwork.node[0].veinsmobility co2emission ETV
vector 5 FinalProjectNetwork.node[1].veinsmobility posx ETV
vector 6 FinalProjectNetwork.node[1].veinsmobility posy ETV
vector 7 FinalProjectNetwork.node[1].veinsmobility speed ETV
vector 8 FinalProjectNetwork.node[1].veinsmobility acceleration ETV
vector 9 FinalProjectNetwork.node[1].veinsmobility co2emission ETV
vector 10 FinalProjectNetwork.node[2].veinsmobility posx ETV
vector 11 FinalProjectNetwork.node[2].veinsmobility posy ETV
vector 12 FinalProjectNetwork.node[2].veinsmobility speed ETV
vector 13 FinalProjectNetwork.node[2].veinsmobility acceleration ETV
vector 14 FinalProjectNetwork.node[2].veinsmobility co2emission ETV
vector 15 FinalProjectNetwork.node[3].veinsmobility posx ETV
vector 16 FinalProjectNetwork.node[3].veinsmobility posy ETV
vector 17 FinalProjectNetwork.node[3].veinsmobility speed ETV
vector 18 FinalProjectNetwork.node[3].veinsmobility acceleration ETV
vector 19 FinalProjectNetwork.node[3].veinsmobility co2emission ETV
vector 20 FinalProjectNetwork.node[4].veinsmobility posx ETV
vector 21 FinalProjectNetwork.node[4].veinsmobility posy ETV
vector 22 FinalProjectNetwork.node[4].veinsmobility speed ETV
vector 23 FinalProjectNetwork.node[4].veinsmobility acceleration ETV
vector 24 FinalProjectNetwork.node[4].veinsmobility co2emission ETV
vector 25 FinalProjectNetwork.node[5].veinsmobility posx ETV
vector 26 FinalProjectNetwork.node[5].veinsmobility posy ETV
vector 27 FinalProjectNetwork.node[5].veinsmobility speed ETV
vector 28 FinalProjectNetwork.node[5].veinsmobility acceleration ETV
vector 29 FinalProjectNetwork.node[5].veinsmobility co2emission ETV
vector 30 FinalProjectNetwork.node[6].veinsmobility posx ETV
vector 31 FinalProjectNetwork.node[6].veinsmobility posy ETV
vector 32 FinalProjectNetwork.node[6].veinsmobility speed ETV
vector 33 FinalProjectNetwork.node[6].veinsmobility acceleration ETV
vector 34 FinalProjectNetwork.node[6].veinsmobility co2emission ETV
vector 35 FinalProjectNetwork.node[7].veinsmobility posx ETV
vector 36 FinalProjectNetwork.node[7].veinsmobility posy ETV
vector 37 FinalProjectNetwork.node[7].veinsmobility speed ETV
vector 38 FinalProjectNetwork.node[7].veinsmobility acceleration ETV
vector 39 FinalProjectNetwork.node[7].veinsmobility co2emission ETV
vector 40 FinalProjectNetwork.node[8].veinsmobility posx ETV
vector 41 FinalProjectNetwork.node[8].veinsmobility posy ETV
vector 42 FinalProjectNetwork.node[8].veinsmobility speed ETV
vector 43 FinalProjectNetwork.node[8].veinsmobility acceleration ETV
vector 44 FinalProjectNetwork.node[8].veinsmobility co2emission ETV
24	25	12	2.7512295049314
24	26	12.5	3.084885534162
24	27	13	3.6190784748713
24	28	13.5	4.2222060877711
24	29	14	4.7108225061902
24	30	14.5	5.2853077349035
24	31	15	5.4143303299521
24	32	15.5	6.0418435071998
24	33	16	6.6454725818915
24	34	16.5	6.8509509143324
24	35	17	5.2741144868683
24	36	17.5	2.1570211746246
24	37	18	1.6102614487449
24	38	18.5	2.3858484389467
24	39	19	1.8355582902595
24	40	19.5	1.806646097717
24	41	20	1.6477296148126
24	42	20.5	2.1823028445001
24	43	21	1.1967128346541
24	44	21.5	2.5437674988778
24	45	22	1.6906883195737
24	46	22.5	1.365178187257
24	47	23	2.4401562739811
24	49	23.5	1.526421161893
24	50	24	2.172194716516
24	51	24.5	1.9990968854896
24	52	25	1.568284013955
24	53	25.5	1.6476187430619
24	54	26	1.7968294232306
24	55	26.5	2.1112371415666
24	56	27	1.826344112972
24	57	27.5	2.1804530708597
24	58	28	1.7856262529844
24	59	28.5	1.7319594410231
24	60	29	2.0630142297951
24	61	29.5	1.8616749528131
24	62	30	1.5902330613844
24	63	30.5	1.8044317298513
24	436	31	2.1584948611636
24	437	31.5	0.973
24	438	32	0.973
24	439	32.5	0.973
24	474	33	0.973
24	475	33.5	5.6203858549272
24	476	34	6.162293840111
24	477	34.5	5.2661925025719
24	478	35	6.9743047073685
24	479	35.5	6.9522594103503
24	480	36	5.6844567986316
24	481	36.5	1.6995021519456
24	482	37	2.1074186388211
24	483	37.5	1.5894199713237
24	484	38	2.4599769042943
24	485	38.5	1.3993265430767
24	486	39	0.973
24	487	39.5	0.973
24	488	40	4.5518108353239
24	489	40.5	8.1299733864344
24	490	41	7.0738110008034
24	491	41.5	3.4145366045408
24	492	42	1.6656286165276
24	493	42.5	2.3775247063267
24	525	43	1.3904930820305
24	526	43.5	2.3036577109115
24	527	44	1.6012094536528
24	528	44.5	1.642262870873
24	529	45	1.8917825222725
24	530	45.5	2.1994695794894
24	531	46	1.5299580131864
24	532	46.5	2.0004219541975
24	533	47	1.5940285427143
24	534	47.5	2.264563055449
24	535	48	2.1867708197908
24	536	48.5	1.6188721708256
24	537	49	1.8097963564279
24	538	49.5	1.5317956757405
24	539	50	1.893929417295
24	540	50.5	2.384603544784
24	541	51	1.2503656557768
24	542	51.5	2.4288595557731
24	543	52	1.3872346185843
24	544	52.5	2.4294124705947
24	637	53	1.4739460199356
24	638	53.5	1.8377439376008
24	639	54	1.9626696456234
24	640	54.5	2.2078980687146
24	641	55	1.9280283661958
24	642	55.5	0.973
24	643	56	0.973
24	644	56.5	0.973
24	645	57	3.5872264942679
24	646	57.5	5.6008963373426
24	647	58	5.163878064465
24	648	58.5	5.6641691365334
24	649	59	6.3181281289807
24	650	59.5	7.6917316218154
24	651	60	4.3680833572053
24	652	60.5	2.2273363340069
24	653	61	1.1701665156461
24	654	61.5	2.5707940432363
24	655	62	1.4836483891961
24	656	62.5	1.6130948296076
24	658	63	2.2179029672437
24	659	63.5	1.6083517783836
24	660	64	2.36418294477
24	661	64.5	1.9184250634957
24	662	65	1.7755500139441
24	663	65.5	1.2440337168058
24	664	66	2.5676464845633
24	665	66.5	1.8267187276662
24	666	67	1.687625638331
24	667	67.5	1.5582564976848
24	668	68	1.7987091378313
24	669	68.5	1.94107649757
24	670	69	2.326595630253
24	671	69.5	1.1994890897328
24	672	70	1.9046000597463
24	673	70.5	2.3060999457631
24	674	71	1.9312028438109
24	675	71.5	1.6579472565861
24	676	72	1.9836075308033
24	677	72.5	1.9601068810551
24	678	73	0.973
24	679	73.5	0.973
24	680	74	0.973
24	681	74.5	5.9557236993216
24	682	75	5.8747455192239
24	683	75.5	6.0007833673722
24	684	76	6.6316910705954
24	685	76.5	7.0527753374525
24	686	77	5.7891123177076
24	687	77.5	1.3782122030349
24	688	78	2.4735667606645
24	689	78.5	1.5081418865322
24	690	79	1.6475787410676
24	691	79.5	1.7988550202845
24	692	80	1.8183589826674
24	693	80.5	2.382263539469
24	694	81	1.3575664788792
24	695	81.5	2.1517801685635
24	696	82	2.3266434889228
24	697	82.5	1.2738115350908
24	698	83	2.0043184204629
24	699	83.5	1.9904719487469
24	700	84	2.1487689602185
24	701	84.5	1.5198786003165
24	702	85	0.973
24	703	85.5	0.973
24	704	86	0.973
24	705	86.5	0.973
24	706	87	5.8794084936876
24	707	87.5	5.6153514439969
24	708	88	6.800678330373
24	709	88.5	7.2752376723186
24	710	89	6.9427355076216
24	711	89.5	4.0227569580064
24	712	90	1.3213648123634
24	713	90.5	2.1879916153233
24	714	91	2.2240543664146
24	715	91.5	1.7638504049047
24	716	92	1.5393350618901
24	717	92.5	2.1219873290889
24	718	93	1.6433169789009
24	719	93.5	1.7802156187452
24	720	94	1.7182600487907
24	721	94.5	2.27815370925
24	722	95	1.8613679487961
24	723	95.5	1.7955607807919
24	724	96	2.0983512596007
24	725	96.5	1.270463644791
24	726	97	2.4055617606677
24	727	97.5	2.0271684465401
24	728	98	1.8226034368379
24	729	98.5	1.6409059819777
24	730	99	1.4592668004963
24	731	99.5	2.1317233049531
24	732	100	1.731792938658
24	733	100.5	2.0612585469137
24	734	101	2.0773086132153
24	735	101.5	1.4539361590879
24	736	102	1.9638269284157
24	737	102.5	2.1677012604612
24	738	103	1.8227151684402
24	739	103.5	1.9627000838928
24	740	104	1.903683959726
24	741	104.5	0.973
24	742	105	0.973
24	743	105.5	0.973
24	744	106	6.4162842684385
24	745	106.5	6.1704189284232
24	746	107	6.6174276439721
24	747	107.5	7.2431647765398
24	748	108	7.3711167714801
24	749	108.5	3.3343200951485
24	750	109	1.7787044654686
24	751	109.5	2.1541492405227
24	752	110	2.1810043302326
24	753	110.5	1.411821688375
24	754	111	2.1446154233207
24	755	111.5	1.8019858580215
24	756	112	1.8488723526356
24	757	112.5	2.1303889909517
24	758	113	1.5247516044213
24	759	113.5	1.627973516072
24	760	114	1.9358310095711
24	761	114.5	2.2913784458722
24	762	115	1.6774801793113
24	763	115.5	1.9551711751613
24	764	116	1.5561253969468
24	765	116.5	2.4519308356404
24	766	117	1.5830182596963
24	767	117.5	1.9257612487756
24	768	118	1.5698583356825
24	769	118.5	2.2735250107993
24	770	119	1.4955951400247
24	771	119.5	1.8892060389097
24	772	120	1.9678622138174
24	773	120.5	1.8356619524286
24	774	121	1.7785462297197
23	25	12	2.0037248642625
23	26	12.5	1.8398452581605
23	27	13	1.8931002146984
23	28	13.5	1.9629768488184
23	29	14	1.9452205715096
23	30	14.5	1.9714363138517
23	31	15	1.8016242176387
23	32	15.5	1.867666098359
23	33	16	1.9068921949062
23	34	16.5	1.8051924407994
23	35	17	1.1636154925013
23	36	17.5	0.098390009962024
23	37	18	-0.086366898347624
23	38	18.5	0.17417049947195
23	39	19	-0.011947041996756
23	40	19.5	-0.021432473147289
23	41	20	-0.074400646532883
23	42	20.5	0.105311008594
23	43	21	-0.22704487376846
23	44	21.5	0.22767691073474
23	45	22	-0.060374648985455
23	46	22.5	-0.16945638450794
23	47	23	0.19343852944672
23	49	23.5	-0.1151710065268
23	50	24	0.10282173244748
23	51	24.5	0.043363410951567
23	52	25	-0.10140537381172
23	53	25.5	-0.073532213224098
23	54	26	-0.022321609635839
23	55	26.5	0.083453363501466
23	56	27	-0.013277119928972
23	57	27.5	0.10520385508891
23	58	28	-0.02822174206376
23	59	28.5	-0.045821763691492
23	60	29	0.065551170236432
23	61	29.5	-0.0026738543063409
23	62	30	-0.093654070510528
23	63	30.5	-0.020447715073825
23	436	31	0.098280078945681
23	437	31.5	-0.69939767094741
23	438	32	-4.3074027324561
23	439	32.5	-4.5
23	474	33	-1.66
23	475	33.5	2.1941000867635
23	476	34	2.147880154103
23	477	34.5	1.5614906272478
23	478	35	2.0476581613533
23	479	35.5	1.8484732731245
23	480	36	1.299322230536
23	481	36.5	-0.055866377376951
23	482	37	0.081728399102577
23	483	37.5	-0.093277156143451
23	484	38	0.19908573079854
23	485	38.5	-0.15849099569488
23	486	39	-1.4353279214657
23	487	39.5	-4.4817161985433
23	488	40	1.2155285232672
23	489	40.5	2.3945569994766
23	490	41	1.8182618827699
23	491	41.5	0.52655882600694
23	492	42	-0.06741227899678
23	493	42.5	0.17154762825463
23	525	43	-0.16133381000254
23	526	43.5	0.14683927944396
23	527	44	-0.090153883057649
23	528	44.5	-0.075279448926448
23	529	45	0.0096959530888121
23	530	45.5	0.11239208121318
23	531	46	-0.11368240299635
23	532	46.5	0.045979694705458
23	533	47	-0.09131213206798
23	534	47.5	0.13498678276315
23	535	48	0.1064660278894
23	536	48.5	-0.084670858276077
23	537	49	-0.019571924526243
23	538	49.5	-0.11283399068751
23	539	50	0.010610260856339
23	540	50.5	0.17411789692473
23	541	51	-0.2087378950743
23	542	51.5	0.18955056063365
23	543	52	-0.16220685276203
23	544	52.5	0.18912039338145
23	637	53	-0.13315921891946
23	638	53.5	-0.0091471036197639
23	639	54	0.032862354195679
23	640	54.5	0.11401193289552
23	641	55	0.018946397113613
23	642	55.5	-2.364354680994
23	643	56	-4.5
23	644	56.5	-4.5
23	645	57	1.2102295271553
23	646	57.5	2.0439791271649
23	647	58	1.6323845450534
23	648	58.5	1.6782120321179
23	649	59	1.7662976420438
23	650	59.5	2.0649814721057
23	651	60	0.8503760106415
23	652	60.5	0.12016667354852
23	653	61	-0.23617350005545
23	654	61.5	0.23635473009199
23	655	62	-0.13014208263718
23	656	62.5	-0.085120445224454
23	658	63	0.11890196265653
23	659	63.5	-0.087109575872308
23	660	64	0.16682455487549
23	661	64.5	0.015673787426202
23	662	65	-0.032215284393168
23	663	65.5	-0.2108906069817
23	664	66	0.23550265693106
23	665	66.5	-0.015021516131238
23	666	67	-0.061343401772898
23	667	67.5	-0.10412330659572
23	668	68	-0.021833783811889
23	669	68.5	0.026317448155023
23	670	69	0.15439139719587
23	671	69.5	-0.22603964769747
23	672	70	0.014783054906875
23	673	70.5	0.14877795596607
23	674	71	0.021129483487456
23	675	71.5	-0.070713166850616
23	676	72	0.039435876738278
23	677	72.5	0.030941843003966
23	678	73	-3.8017907802968
23	679	73.5	-4.5
23	680	74	-3.08
23	681	74.5	2.3787674578978
23	682	75	2.0316523267003
23	683	75.5	1.8615934944199
23	684	76	1.9117944658268
23	685	76.5	1.8797317918809
23	686	77	1.3293296239779
23	687	77.5	-0.16519429294393
23	688	78	0.20398040972184
23	689	78.5	-0.12167326201219
23	690	79	-0.073329917276276
23	691	79.5	-0.021389738144354
23	692	80	-0.014514565663411
23	693	80.5	0.17432709288317
23	694	81	-0.17204315267969
23	695	81.5	0.097533318512141
23	696	82	0.15374474666547
23	697	82.5	-0.2010196939297
23	698	83	0.047332735625094
23	699	83.5	0.041908696484754
23	700	84	0.093911496079528
23	701	84.5	-0.11776966172271
23	702	85	-0.30428764532286
23	703	85.5	-4.380327441228
23	704	86	-4.5
23	705	86.5	-1.6232177650338
23	706	87	2.271426489749
23	707	87.5	1.8776405732566
23	708	88	2.1380952976504
23	709	88.5	2.0836248047976
23	710	89	1.7844765352877
23	711	89.5	0.73013536791089
23	712	90	-0.18448314947076
23	713	90.5	0.10945356414188
23	714	91	0.11931643129792
23	715	91.5	-0.035960001074709
23	716	92	-0.1108845633408
23	717	92.5	0.085908118407243
23	718	93	-0.075601494945587
23	719	93.5	-0.028602868886665
23	720	94	-0.049068581545725
23	721	94.5	0.13919349923264
23	722	95	-0.0022791229933503
23	723	95.5	-0.024278908232226
23	724	96	0.077215400785207
23	725	96.5	-0.20189192708116
23	726	97	0.18175935184117
23	727	97.5	0.052534641907553
23	728	98	-0.01644498731941
23	729	98.5	-0.077039093351924
23	730	99	-0.13742279918399
23	731	99.5	0.090560446730816
23	732	100	-0.044942324580624
23	733	100.5	0.066198717183433
23	734	101	0.070380656099879
23	735	101.5	-0.13964737358037
23	736	102	0.03366049537901
23	737	102.5	0.10112180735916
23	738	103	-0.01563885968644
23	739	103.5	0.031344529045747
23	740	104	0.011169293625279
23	741	104.5	-2.6394874698309
23	742	105	-4.368963714018
23	743	105.5	-4.4942989649167
23	744	106	2.6
23	745	106.5	2.1377589825168
23	746	107	2.0700973109528
23	747	107.5	2.0797514950717
23	748	108	1.9276217622962
23	749	108.5	0.50238460648971
23	750	109	-0.028179255379364
23	751	109.5	0.098220256515777
23	752	110	0.10529958763625
23	753	110.5	-0.1539890240645
23	754	111	0.094108422002755
23	755	111.5	-0.021970148887487
23	756	112	-0.0059393055550743
23	757	112.5	0.088140747658908
23	758	113	-0.11588049877901
23	759	113.5	-0.079784154724329
23	760	114	0.024973565116525
23	761	114.5	0.14327250708826
23	762	115	-0.064185095923023
23	763	115.5	0.029779437715188
23	764	116	-0.10464631519746
23	765	116.5	0.19640571568627
23	766	117	-0.09659655383788
23	767	117.5	0.019552327096463
23	768	118	-0.10017394565511
23	769	118.5	0.13686193822883
23	770	119	-0.12560503798071
23	771	119.5	0.0083920699777096
23	772	120	0.034609622163696
23	773	120.5	-0.010208778814413
23	774	121	-0.029235850274564
22	24	11.5	2.0830577988319
22	25	12	3.0849202309631
22	26	12.5	4.0048428600434
22	27	13	4.9513929673926
22	28	13.5	5.9328813918017
22	29	14	6.9054916775565
22	30	14.5	7.8912098344824
22	31	15	8.7920219433018
22	32	15.5	9.7258549924813
22	33	16	10.679301089934
22	34	16.5	11.581897310334
22	35	17	12.163705056585
22	36	17.5	12.212900061566
22	37	18	12.169716612392
22	38	18.5	12.256801862128
22	39	19	12.25082834113
22	40	19.5	12.240112104556
22	41	20	12.202911781289
22	42	20.5	12.255567285586
22	43	21	12.142044848702
22	44	21.5	12.25588330407
22	45	22	12.225695979577
22	46	22.5	12.140967787323
22	47	23	12.237687052046
22	49	23.5	12.180101548783
22	50	24	12.231512415007
22	51	24.5	12.253194120482
22	52	25	12.202491433577
22	53	25.5	12.165725326965
22	54	26	12.154564522147
22	55	26.5	12.196291203897
22	56	27	12.189652643933
22	57	27.5	12.242254571477
22	58	28	12.228143700445
22	59	28.5	12.2052328186
22	60	29	12.238008403718
22	61	29.5	12.236671476565
22	62	30	12.189844441309
22	63	30.5	12.179620583773
22	436	31	12.228760623245
22	437	31.5	11.879061787772
22	438	32	9.7253604215436
22	439	32.5	7.4753604215436
22	474	33	6.6453604215436
22	475	33.5	7.7424104649254
22	476	34	8.8163505419769
22	477	34.5	9.5970958556008
22	478	35	10.620924936277
22	479	35.5	11.54516157284
22	480	36	12.194822688108
22	481	36.5	12.166889499419
22	482	37	12.207753698971
22	483	37.5	12.161115120899
22	484	38	12.260657986298
22	485	38.5	12.181412488451
22	486	39	11.463748527718
22	487	39.5	9.2228904284461
22	488	40	9.8306546900797
22	489	40.5	11.027933189818
22	490	41	11.937064131203
22	491	41.5	12.200343544206
22	492	42	12.166637404708
22	493	42.5	12.252411218835
22	525	43	12.171744313834
22	526	43.5	12.245163953556
22	527	44	12.200087012027
22	528	44.5	12.162447287564
22	529	45	12.167295264108
22	530	45.5	12.223491304715
22	531	46	12.166650103217
22	532	46.5	12.18963995057
22	533	47	12.143983884536
22	534	47.5	12.211477275917
22	535	48	12.264710289862
22	536	48.5	12.222374860724
22	537	49	12.212588898461
22	538	49.5	12.156171903117
22	539	50	12.161477033545
22	540	50.5	12.248535982008
22	541	51	12.14416703447
22	542	51.5	12.238942314787
22	543	52	12.157838888406
22	544	52.5	12.252399085097
22	637	53	12.185819475637
22	638	53.5	12.181245923827
22	639	54	12.197677100925
22	640	54.5	12.254683067373
22	641	55	12.26415626593
22	642	55.5	11.081978925433
22	643	56	8.8319789254327
22	644	56.5	6.5819789254327
22	645	57	7.1870936890103
22	646	57.5	8.2090832525928
22	647	58	9.0252755251195
22	648	58.5	9.8643815411784
22	649	59	10.7475303622
22	650	59.5	11.780021098253
22	651	60	12.205209103574
22	652	60.5	12.265292440348
22	653	61	12.14720569032
22	654	61.5	12.265383055366
22	655	62	12.200312014048
22	656	62.5	12.157751791436
22	658	63	12.217202772764
22	659	63.5	12.173647984828
22	660	64	12.257060262265
22	661	64.5	12.264897155979
22	662	65	12.248789513782
22	663	65.5	12.143344210291
22	664	66	12.261095538757
22	665	66.5	12.253584780691
22	666	67	12.222913079805
22	667	67.5	12.170851426507
22	668	68	12.159934534601
22	669	68.5	12.173093258678
22	670	69	12.250288957276
22	671	69.5	12.137269133428
22	672	70	12.144660660881
22	673	70.5	12.219049638864
22	674	71	12.229614380608
22	675	71.5	12.194257797182
22	676	72	12.213975735552
22	677	72.5	12.229446657054
22	678	73	10.328551266905
22	679	73.5	8.0785512669051
22	680	74	6.5385512669051
22	681	74.5	7.727934995854
22	682	75	8.7437611592042
22	683	75.5	9.6745579064141
22	684	76	10.630455139328
22	685	76.5	11.570321035268
22	686	77	12.234985847257
22	687	77.5	12.152388700785
22	688	78	12.254378905646
22	689	78.5	12.19354227464
22	690	79	12.156877316002
22	691	79.5	12.14618244693
22	692	80	12.138925164098
22	693	80.5	12.226088710539
22	694	81	12.1400671342
22	695	81.5	12.188833793456
22	696	82	12.265706166788
22	697	82.5	12.165196319823
22	698	83	12.188862687636
22	699	83.5	12.209817035878
22	700	84	12.256772783918
22	701	84.5	12.197887953057
22	702	85	12.045744130395
22	703	85.5	9.8555804097814
22	704	86	7.6055804097814
22	705	86.5	6.7939715272645
22	706	87	7.929684772139
22	707	87.5	8.8685050587674
22	708	88	9.9375527075926
22	709	88.5	10.979365109991
22	710	89	11.871603377635
22	711	89.5	12.236671061591
22	712	90	12.144429486855
22	713	90.5	12.199156268926
22	714	91	12.258814484575
22	715	91.5	12.240834484038
22	716	92	12.185392202367
22	717	92.5	12.228346261571
22	718	93	12.190545514098
22	719	93.5	12.176244079655
22	720	94	12.151709788882
22	721	94.5	12.221306538498
22	722	95	12.220166977002
22	723	95.5	12.208027522886
22	724	96	12.246635223278
22	725	96.5	12.145689259738
22	726	97	12.236568935658
22	727	97.5	12.262836256612
22	728	98	12.254613762952
22	729	98.5	12.216094216276
22	730	99	12.147382816684
22	731	99.5	12.19266304005
22	732	100	12.170191877759
22	733	100.5	12.203291236351
22	734	101	12.238481564401
22	735	101.5	12.168657877611
22	736	102	12.1854881253
22	737	102.5	12.23604902898
22	738	103	12.228229599137
22	739	103.5	12.24390186366
22	740	104	12.249486510472
22	741	104.5	10.929742775557
22	742	105	8.7452609185478
22	743	105.5	6.4981114360895
22	744	106	7.7981114360895
22	745	106.5	8.8669909273479
22	746	107	9.9020395828243
22	747	107.5	10.94191533036
22	748	108	11.905726211508
22	749	108.5	12.156918514753
22	750	109	12.142828887063
22	751	109.5	12.191939015321
22	752	110	12.244588809139
22	753	110.5	12.167594297107
22	754	111	12.214648508109
22	755	111.5	12.203663433665
22	756	112	12.200693780887
22	757	112.5	12.244764154717
22	758	113	12.186823905327
22	759	113.5	12.146931827965
22	760	114	12.159418610523
22	761	114.5	12.231054864067
22	762	115	12.198962316106
22	763	115.5	12.213852034964
22	764	116	12.161528877365
22	765	116.5	12.259731735208
22	766	117	12.211433458289
22	767	117.5	12.221209621837
22	768	118	12.17112264901
22	769	118.5	12.239553618124
22	770	119	12.176751099134
22	771	119.5	12.180947134123
22	772	120	12.198251945204
22	773	120.5	12.193147555797
22	774	121	12.17852963066
21	23	11	531.19370273994
21	24	11.5	530.90187009694
21	25	12	530.42389716956
21	26	12.5	529.77367714904
21	27	13	528.96382867715
21	28	13.5	527.98788698932
21	29	14	526.83717187545
21	30	14.5	525.50942916647
21	31	15	524.01770844522
21	32	15.5	522.50785079472
21	33	16	520.98050366127
21	34	16.5	519.30503159018
21	35	17	517.51320680422
21	36	17.5	515.69989956052
21	37	18	513.88589912507
21	38	18.5	512.06839732611
21	39	19	510.25393496974
21	40	19.5	508.43868631051
21	41	20	506.62348754761
21	42	20.5	504.80717671182
21	43	21	502.99579361729
21	44	21.5	501.11308499155
21	45	22	499.22107793973
21	46	22.5	497.33697523426
21	47	23	495.44522836876
21	49	23.5	493.55305866198
21	50	24	491.66865551983
21	51	24.5	489.78290219477
21	52	25	487.89392153754
21	53	25.5	486.00490336957
21	54	26	484.11671507292
21	55	26.5	477.46329025925
21	56	27	475.85524604849
21	57	27.5	474.24494871112
21	58	28	472.63173777697
21	59	28.5	471.01937768888
21	60	29	469.41270507591
21	61	29.5	467.79952559622
21	62	30	466.18785861629
21	63	30.5	464.57432378786
21	436	31	462.96487551709
21	437	31.5	461.36681600701
21	438	32	459.96552007434
21	439	32.5	458.86095909685
21	474	33	457.99695125636
21	475	33.5	460.43174197247
21	476	34	463.66545720281
21	477	34.5	467.23439788608
21	478	35	471.1697301637
21	479	35.5	475.45930409101
21	480	36	480.10657100314
21	481	36.5	484.79890187098
21	482	37	489.48975115745
21	483	37.5	494.18036736546
21	484	38	498.88851401592
21	485	38.5	503.58792200431
21	486	39	508.20614676945
21	487	39.5	512.09848140368
21	488	40	515.68038184119
21	489	40.5	530.02445398778
21	490	41	531.64435149651
21	491	41.5	543.50538935394
21	492	42	543.5413740771
21	493	42.5	543.57737235171
21	525	43	552.60388137373
21	526	43.5	554.35643474835
21	527	44	555.66473250066
21	528	44.5	557.48332642037
21	529	45	556.38792156726
21	530	45.5	555.23711648906
21	531	46	553.7882625253
21	532	46.5	542.02447377619
21	533	47	534.35925066472
21	534	47.5	530.11722233639
21	535	48	528.37290626458
21	536	48.5	526.63190386946
21	537	49	524.88908649958
21	538	49.5	523.1497336005
21	539	50	521.4123843873
21	540	50.5	519.67060497572
21	541	51	517.93113339233
21	542	51.5	516.1855574339
21	543	52	514.44566564919
21	544	52.5	512.70420844385
21	637	53	510.95934262663
21	638	53.5	509.21433841493
21	639	54	507.47547569382
21	640	54.5	505.73604654238
21	641	55	503.99437105704
21	642	55.5	502.31344059615
21	643	56	500.9253713038
21	644	56.5	499.85821884982
21	645	57	498.90631427442
21	646	57.5	475.15045380737
21	647	58	472.16276977427
21	648	58.5	468.8846451088
21	649	59	465.30671060443
21	650	59.5	461.39303206375
21	651	60	457.21299789707
21	652	60.5	452.99947179293
21	653	61	448.79577331424
21	654	61.5	444.58173966226
21	655	62	440.37838501296
21	656	62.5	436.17250509162
21	658	63	431.96299780882
21	659	63.5	427.74825501975
21	660	64	423.5263468601
21	661	64.5	419.31423271681
21	662	65	415.09670762821
21	663	65.5	405.30180888272
21	664	66	403.63216039905
21	665	66.5	401.96495700105
21	666	67	400.2986964325
21	667	67.5	398.63485585131
21	668	68	396.97260478434
21	669	68.5	395.30798942778
21	670	69	393.64347038413
21	671	69.5	391.98028568059
21	672	70	390.25716085415
21	673	70.5	388.47840602209
21	674	71	386.69878961873
21	675	71.5	384.91715143124
21	676	72	383.13905394368
21	677	72.5	381.3606427565
21	678	73	379.72791225369
21	679	73.5	378.41933070724
21	680	74	377.41798022936
21	681	74.5	371.7311337083
21	682	75	370.73907954173
21	683	75.5	369.63781105796
21	684	76	368.42194689553
21	685	76.5	367.09139172857
21	686	77	365.65807312467
21	687	77.5	364.2082996853
21	688	78	362.75784474305
21	689	78.5	361.31423007313
21	690	79	359.86759192326
21	691	79.5	358.42063388868
21	692	80	356.97496354093
21	693	80.5	351.01017096666
21	694	81	349.54977253446
21	695	81.5	348.08910741143
21	696	82	346.62248442522
21	697	82.5	345.16055298829
21	698	83	343.69779969765
21	699	83.5	342.23201245186
21	700	84	340.76939774215
21	701	84.5	339.30550038488
21	702	85	337.84467673278
21	703	85.5	336.55536071036
21	704	86	335.53502326408
21	705	86.5	334.73213324778
21	706	87	326.9716320223
21	707	87.5	325.7374090793
21	708	88	324.34942304859
21	709	88.5	322.80010487556
21	710	89	321.11423570976
21	711	89.5	319.33042576724
21	712	90	317.54677399077
21	713	90.5	315.7617237484
21	714	91	313.97647551348
21	715	91.5	312.19004147113
21	716	92	310.40099121384
21	717	92.5	308.6127137723
21	718	93	306.82384728873
21	719	93.5	305.04089164219
21	720	94	303.24912437939
21	721	94.5	301.44009262556
21	722	95	299.63278359996
21	723	95.5	297.82325452445
21	724	96	296.01298520152
21	725	96.5	294.20824750633
21	726	97	292.39908570705
21	727	97.5	290.58590956459
21	728	98	288.77455375095
21	729	98.5	286.9686669464
21	730	99	285.16071599348
21	731	99.5	283.34670985443
21	732	100	281.54168700888
21	733	100.5	279.73724916031
21	734	101	277.92906267882
21	735	101.5	276.12169770446
21	736	102	274.31910936101
21	737	102.5	272.51335764297
21	738	103	270.7092531519
21	739	103.5	268.90481052748
21	740	104	267.09472296375
21	741	104.5	265.36356853644
21	742	105	263.93828527376
21	743	105.5	262.84385334236
21	744	106	261.76692451971
21	745	106.5	247.26563749126
21	746	107	242.96393486494
21	747	107.5	238.18948539923
21	748	108	232.96002050707
21	749	108.5	227.44281354957
21	750	109	221.9016426734
21	751	109.5	216.37285680313
21	752	110	210.83140219289
21	753	110.5	205.28730374362
21	754	111	199.74542796036
21	755	111.5	194.21598448368
21	756	112	188.69266867112
21	757	112.5	183.15211252788
21	758	113	177.61383723235
21	759	113.5	172.07821639858
21	760	114	166.53585746961
21	761	114.5	160.99731270934
21	762	115	155.46374405851
21	763	115.5	149.91165536733
21	764	116	144.36948919146
21	765	116.5	138.81219585221
21	766	117	133.25769271176
21	767	117.5	127.69871941737
21	768	118	122.16127472198
21	769	118.5	116.60352750956
21	770	119	111.04822543896
21	771	119.5	105.48881961207
21	772	120	99.930365760821
21	773	120.5	94.373856103258
21	774	121	88.823449594974
20	23	11	1060.7107431501
20	24	11.5	1061.4403247577
20	25	12	1062.6352570761
20	26	12.5	1064.2608071274
20	27	13	1066.2854283071
20	28	13.5	1068.7252825267
20	29	14	1071.6020703114
20	30	14.5	1074.9214270838
20	31	15	1078.6507288869
20	32	15.5	1082.8327562854
20	33	16	1087.4895211267
20	34	16.5	1092.5979075979
20	35	17	1098.0610446165
20	36	17.5	1103.5896800092
20	37	18	1109.1204288907
20	38	18.5	1114.6618531623
20	39	19	1120.1940104054
20	40	19.5	1125.7285650259
20	41	20	1131.2629675163
20	42	20.5	1136.8007606321
20	43	21	1142.3235294408
20	44	21.5	1147.8404622109
20	45	22	1153.3600724248
20	46	22.5	1158.8566230467
20	47	23	1164.3754742111
20	49	23.5	1169.8955589433
20	50	24	1175.3929860383
20	51	24.5	1180.8943520633
20	52	25	1186.4051332834
20	53	25.5	1191.9160239348
20	54	26	1197.4244935771
20	55	26.5	1216.3072375675
20	56	27	1220.7059410275
20	57	27.5	1225.1108077732
20	58	28	1229.523644479
20	59	28.5	1233.9341537491
20	60	29	1238.3291052899
20	61	29.5	1242.741855954
20	62	30	1247.1504692705
20	63	30.5	1251.5641919686
20	436	31	1255.9667361462
20	437	31.5	1260.3381270876
20	438	32	1264.1712836801
20	439	32.5	1267.1927405288
20	474	33	1269.5561794516
20	475	33.5	1281.9540572031
20	476	34	1283.1023982071
20	477	34.5	1284.3697828206
20	478	35	1285.7672786101
20	479	35.5	1287.2905709472
20	480	36	1288.9408854528
20	481	36.5	1290.6072028482
20	482	37	1292.2729941117
20	483	37.5	1293.9387026055
20	484	38	1295.6106364236
20	485	38.5	1297.2794670111
20	486	39	1298.9194682128
20	487	39.5	1300.3016948912
20	488	40	1301.5736817088
20	489	40.5	1300.4725989442
20	490	41	1299.3893668458
20	491	41.5	1296.9310778708
20	492	42	1296.9382748154
20	493	42.5	1296.9454744703
20	525	43	1302.5148612666
20	526	43.5	1305.3706955814
20	527	44	1308.4630386053
20	528	44.5	1320.9917487164
20	529	45	1322.7676126401
20	530	45.5	1324.516434331
20	531	46	1326.0083595907
20	532	46.5	1331.377845389
20	533	47	1333.1857035182
20	534	47.5	1342.8403387658
20	535	48	1348.0103763374
20	536	48.5	1353.1697785075
20	537	49	1358.3345592944
20	538	49.5	1363.4890732383
20	539	50	1368.6376493263
20	540	50.5	1373.7993541586
20	541	51	1378.9530800484
20	542	51.5	1384.1201646101
20	543	52	1389.2704234322
20	544	52.5	1394.4253160607
20	637	53	1399.5902985312
20	638	53.5	1404.7623185781
20	639	54	1409.9184955483
20	640	54.5	1415.0763521307
20	641	55	1420.2408696731
20	642	55.5	1425.2252625327
20	643	56	1429.3412464062
20	644	56.5	1432.5056289881
20	645	57	1435.3250386376
20	646	57.5	1437.4801148762
20	647	58	1436.4236209469
20	648	58.5	1435.2644224606
20	649	59	1433.9992063128
20	650	59.5	1432.6152655836
20	651	60	1431.1371371494
20	652	60.5	1429.6471654186
20	653	61	1428.1606688968
20	654	61.5	1426.6705176887
20	655	62	1425.1841427507
20	656	62.5	1423.6968748351
20	658	63	1422.2083242252
20	659	63.5	1420.7179222546
20	660	64	1419.2249864919
20	661	64.5	1417.7355140535
20	662	65	1416.2441282163
20	663	65.5	1422.0245733518
20	664	66	1427.0335188028
20	665	66.5	1432.0351289969
20	666	67	1437.0339107025
20	667	67.5	1442.0254324461
20	668	68	1447.012185647
20	669	68.5	1452.0060317167
20	670	69	1456.9995888476
20	671	69.5	1461.9891429582
20	672	70	1466.9592543365
20	673	70.5	1471.9195902288
20	674	71	1476.8823287472
20	675	71.5	1481.8507053268
20	676	72	1486.8092081111
20	677	72.5	1491.7685856959
20	678	73	1496.3217099205
20	679	73.5	1499.9708941115
20	680	74	1502.7633164435
20	681	74.5	1519.410892736
20	682	75	1522.534623293
20	683	75.5	1526.0022424313
20	684	76	1529.8306947127
20	685	76.5	1534.0202802947
20	686	77	1538.5334422487
20	687	77.5	1543.0984163659
20	688	78	1547.6655363653
20	689	78.5	1552.2111180572
20	690	79	1556.7662199316
20	691	79.5	1561.322329043
20	692	80	1565.8743835505
20	693	80.5	1584.1718181484
20	694	81	1588.5063146579
20	695	81.5	1592.841602712
20	696	82	1597.1945738426
20	697	82.5	1601.5336203458
20	698	83	1605.87510613
20	699	83.5	1610.2255967635
20	700	84	1614.5666712362
20	701	84.5	1618.9115526367
20	702	85	1623.2473112088
20	703	85.5	1627.0740311474
20	704	86	1630.1024164168
20	705	86.5	1632.485412657
20	706	87	1655.5586814516
20	707	87.5	1659.2318133213
20	708	88	1663.3625546537
20	709	88.5	1667.9734314729
20	710	89	1672.9906933834
20	711	89.5	1678.2994337423
20	712	90	1683.6077033882
20	713	90.5	1688.9201349641
20	714	91	1694.2331557795
20	715	91.5	1699.5497056389
20	716	92	1704.8740415328
20	717	92.5	1710.1960774742
20	718	93	1715.519866445
20	719	93.5	1720.8260643606
20	720	94	1726.1345058541
20	721	94.5	1731.4448893895
20	722	95	1736.750215884
20	723	95.5	1742.0620592992
20	724	96	1747.3760756988
20	725	96.5	1752.6738540943
20	726	97	1757.9846193761
20	727	97.5	1763.3071686975
20	728	98	1768.624374473
20	729	98.5	1773.9255260606
20	730	99	1779.2327369224
20	731	99.5	1784.5577226854
20	732	100	1789.8563381352
20	733	100.5	1795.1639615949
20	734	101	1800.4827421302
20	735	101.5	1805.7991062023
20	736	102	1811.1014198146
20	737	102.5	1816.4130384932
20	738	103	1821.7198118537
20	739	103.5	1827.0275798334
20	740	104	1832.3519524021
20	741	104.5	1837.4441431501
20	742	105	1841.6366138672
20	743	105.5	1844.8558853935
20	744	106	1848.0236715253
20	745	106.5	1853.1569566132
20	746	107	1851.6695274257
20	747	107.5	1850.0186333247
20	748	108	1848.2104054225
20	749	108.5	1846.302682975
20	750	109	1844.3866743592
20	751	109.5	1842.4749481918
20	752	110	1840.5588414673
20	753	110.5	1838.6418205645
20	754	111	1836.7255682082
20	755	111.5	1834.8136146557
20	756	112	1832.9037799076
20	757	112.5	1830.9879838522
20	758	113	1829.0729764612
20	759	113.5	1827.1588869216
20	760	114	1825.2424675046
20	761	114.5	1823.3273669389
20	762	115	1821.4139869967
20	763	115.5	1819.5314044545
20	764	116	1817.6605816228
20	765	116.5	1815.7846524406
20	766	117	1813.9096651226
20	767	117.5	1812.033168852
20	768	118	1810.163939811
20	769	118.5	1808.2878574187
20	770	119	1806.4126004124
20	771	119.5	1804.5359581354
20	772	120	1802.6596372089
20	773	120.5	1800.7839725676
20	774	121	1798.9103681156
29	30	14.5	2.6271796150602
29	31	15	3.5831386930186
29	32	15.5	3.2999565149504
29	33	16	3.6298888378287
29	34	16.5	4.6948820907509
29	35	17	4.4198542199086
29	36	17.5	5.0557282287395
29	37	18	5.8540622788243
29	38	18.5	6.2570414610723
29	39	19	6.8736281858037
29	40	19.5	7.3580329701452
29	41	20	7.3670213904796
29	42	20.5	8.2350745961186
29	43	21	8.1836295365763
29	44	21.5	0.973
29	45	22	0.973
29	46	22.5	0.973
29	47	23	0.973
29	49	23.5	0.973
29	50	24	0.973
29	51	24.5	0.973
29	52	25	1.4311193203446
29	53	25.5	1.4893153790952
29	54	26	1.1888841144811
29	55	26.5	0.973
29	56	27	1.7193125169371
29	57	27.5	1.4100589566463
29	58	28	1.6560029079195
29	59	28.5	1.989356735598
29	60	29	0.973
29	61	29.5	2.2775722267287
29	62	30	1.1824495859875
29	63	30.5	2.0292577255355
29	436	31	1.4479952865317
29	437	31.5	1.8954926823884
29	438	32	0.973
29	439	32.5	0.973
29	474	33	0.973
29	475	33.5	3.2210691589591
29	476	34	3.7406767857435
29	477	34.5	0.973
29	478	35	0.973
29	479	35.5	6.3069105404562
29	480	36	5.4756374476338
29	481	36.5	5.9475081693601
29	482	37	6.8541220528696
29	483	37.5	7.1585758742872
29	484	38	7.5080732702622
29	485	38.5	7.8070851105353
29	486	39	2.6807957928461
29	487	39.5	0.973
29	488	40	0.973
29	489	40.5	6.1306989577104
29	490	41	1.6144056608828
29	491	41.5	0.973
29	492	42	1.2095390107045
29	493	42.5	8.6333206559296
29	525	43	6.6188102970088
29	526	43.5	8.6052678417631
29	527	44	6.3078530869861
29	528	44.5	4.2837516160038
29	529	45	9.322330471766
29	530	45.5	8.600336127653
29	531	46	1.0741792341236
29	532	46.5	0.973
29	533	47	0.973
29	534	47.5	0.973
29	535	48	0.973
29	536	48.5	0.973
29	537	49	4.0496153683437
29	538	49.5	4.1808499738955
29	539	50	5.5071107211824
29	540	50.5	5.2503816768241
29	541	51	6.1066532999004
29	542	51.5	6.5821098463379
29	543	52	6.0688140547233
29	544	52.5	6.7992258464602
29	637	53	8.5945304647602
29	638	53.5	9.0464842549403
29	639	54	9.5417803385246
29	640	54.5	9.0620669536627
29	641	55	2.5473056489124
29	642	55.5	0.973
29	643	56	0.973
29	644	56.5	0.973
29	645	57	0.973
29	646	57.5	1.8418376155904
29	647	58	2.2851622299442
29	648	58.5	0.973
29	649	59	0.973
29	650	59.5	0.973
29	651	60	6.05622297259
29	652	60.5	5.2861362700277
29	653	61	5.8918553366406
29	654	61.5	6.6733700681745
29	655	62	7.322162777608
29	656	62.5	8.3886456883502
29	658	63	8.2210593763324
29	659	63.5	9.207465294694
29	660	64	6.5110243174026
29	661	64.5	0.973
29	662	65	1.1853214407164
29	663	65.5	0.973
29	664	66	0.973
29	665	66.5	1.1029059174063
29	666	67	0.973
29	667	67.5	1.2277971635641
29	668	68	0.973
29	669	68.5	1.9737473138516
29	670	69	0.973
29	671	69.5	0.973
29	672	70	1.1245577713888
29	673	70.5	1.9818331884831
29	674	71	1.1594434216701
29	675	71.5	1.7841174692266
29	676	72	1.2784579880865
29	677	72.5	1.8574381510035
29	678	73	0.973
29	679	73.5	0.973
29	680	74	0.973
29	681	74.5	3.5152654398104
29	682	75	3.6455706772657
29	683	75.5	0.973
29	684	76	0.973
29	685	76.5	3.6534141179879
29	686	77	6.3495605382498
29	687	77.5	6.194248773818
29	688	78	7.1055570155441
29	689	78.5	7.249607993508
29	690	79	8.3641078512509
29	691	79.5	7.899271128004
29	692	80	1.6187411018403
29	693	80.5	1.2676086823053
29	694	81	0.973
29	695	81.5	0.973
29	696	82	1.5486762221242
29	697	82.5	1.843070242387
29	698	83	0.973
29	699	83.5	1.6509551119764
29	700	84	1.9202684159597
29	701	84.5	0.973
29	702	85	2.2632612036289
29	703	85.5	0.973
29	704	86	0.973
29	705	86.5	0.973
29	706	87	3.3476984297761
29	707	87.5	3.5564232716543
29	708	88	0.973
29	709	88.5	0.973
29	710	89	3.5102931182061
29	711	89.5	5.6889233640346
29	712	90	6.2511177697057
29	713	90.5	5.6790518293127
29	714	91	7.2695091881752
29	715	91.5	7.3433426844111
29	716	92	7.7250957709589
29	717	92.5	8.1248617320064
29	718	93	3.2886521331827
29	719	93.5	0.973
29	720	94	0.973
29	721	94.5	1.3928290327631
29	722	95	0.973
29	723	95.5	1.3462010598454
29	724	96	1.7214931769554
29	725	96.5	0.973
29	726	97	1.3168471254065
29	727	97.5	1.7980870238103
29	728	98	1.5973721311912
29	729	98.5	1.3116164661782
29	730	99	2.1903052129111
29	731	99.5	1.3943984285763
29	732	100	1.2487322526988
29	733	100.5	1.3997151118892
29	734	101	1.9234961998398
29	735	101.5	2.3516847452299
29	736	102	1.3909237497598
29	737	102.5	1.2902275698784
29	738	103	2.0249998589304
29	739	103.5	1.9072798409652
29	740	104	1.6266892659306
29	741	104.5	0.973
29	742	105	0.973
29	743	105.5	0.973
29	744	106	1.6069844702126
29	745	106.5	4.2391269446557
29	746	107	3.1452365284989
29	747	107.5	0.973
29	748	108	0.973
29	749	108.5	5.9996666551631
29	750	109	6.1536444260367
29	751	109.5	6.6367351812847
29	752	110	6.0964185761082
29	753	110.5	7.7444052915858
29	754	111	8.2812991849324
29	755	111.5	7.919367277888
29	756	112	0.973
29	757	112.5	0.973
29	758	113	0.973
29	759	113.5	1.1809426939159
29	760	114	0.973
29	761	114.5	1.4163075545663
29	762	115	0.973
29	763	115.5	1.7534174438711
29	764	116	1.1489712152141
29	765	116.5	1.758771227495
29	766	117	0.973
29	767	117.5	2.4209650672252
29	768	118	0.973
29	769	118.5	1.902110388974
29	770	119	1.9332463562432
29	771	119.5	1.8540697059879
29	772	120	1.4011820698195
29	773	120.5	1.2568164880868
29	774	121	1.7673875439168
29	775	121.5	2.0104869096941
29	776	122	9.5399457131307
29	777	122.5	9.690439606059
28	30	14.5	1.9825345634767
28	31	15	2.330390194254
28	32	15.5	1.6555051190406
28	33	16	1.626303456272
28	34	16.5	2.0063867093809
28	35	17	1.6107785319351
28	36	17.5	1.7313656778401
28	37	18	1.8829088799888
28	38	18.5	1.8482610886265
28	39	19	1.8926009180956
28	40	19.5	1.8836869168142
28	41	20	1.735186430905
28	42	20.5	1.8515067245765
28	43	21	1.7049017020506
28	44	21.5	-0.52759407979482
28	45	22	-0.4052866620286
28	46	22.5	-0.6510903170643
28	47	23	-0.34206364806724
28	49	23.5	-0.34963107845273
28	50	24	-0.47805618855465
28	51	24.5	-0.32624733016856
28	52	25	-0.16490009707354
28	53	25.5	-0.14512507932785
28	54	26	-0.23911783928367
28	55	26.5	-0.32069166421299
28	56	27	-0.064255747808019
28	57	27.5	-0.16345087915305
28	58	28	-0.081935152847926
28	59	28.5	0.027139689771339
28	60	29	-0.34633138213712
28	61	29.5	0.12615319654733
28	62	30	-0.2350458377447
28	63	30.5	0.047144287852113
28	436	31	-0.14538718490764
28	437	31.5	0.0046849332739143
28	438	32	-3.0909317653816
28	439	32.5	-3.0778464977653
28	474	33	-2.2053333514551
28	475	33.5	0.79271929925302
28	476	34	0.97250361726769
28	477	34.5	-1.0373417284818
28	478	35	-4.4126612324555
28	479	35.5	2.6
28	480	36	1.8825806436222
28	481	36.5	1.8739798007114
28	482	37	2.0211010742467
28	483	37.5	1.9325505785411
28	484	38	1.8758767321752
28	485	38.5	1.8146852927515
28	486	39	0.21518588627084
28	487	39.5	-3.4525647483485
28	488	40	-0.80552552185447
28	489	40.5	1.4722762743568
28	490	41	-0.081289300490571
28	491	41.5	-4.5
28	492	42	-0.19327015343072
28	493	42.5	2.6
28	525	43	1.6820781965414
28	526	43.5	2.1501423776941
28	527	44	1.3218529633583
28	528	44.5	0.67460735421043
28	529	45	2.0043253691308
28	530	45.5	1.6815384869138
28	531	46	-0.30267838318883
28	532	46.5	-4.4533551050653
28	533	47	-4.4405400511443
28	534	47.5	-4.5
28	535	48	-4.4938853445811
28	536	48.5	-4.4959043193776
28	537	49	2.0455404653866
28	538	49.5	1.8048960498022
28	539	50	2.2359773999499
28	540	50.5	1.8327738134237
28	541	51	1.9874055095343
28	542	51.5	1.9602480715001
28	543	52	1.6033397144498
28	544	52.5	1.716204679152
28	637	53	2.1174706521071
28	638	53.5	2.0651522827521
28	639	54	2.0323277020315
28	640	54.5	1.7686596072406
28	641	55	0.07431034047362
28	642	55.5	-1.6131320152515
28	643	56	-3.405549294666
28	644	56.5	-3.3764840648033
28	645	57	-1.5305808143206
28	646	57.5	0.027678403749889
28	647	58	0.18952159853002
28	648	58.5	-1.8813991914525
28	649	59	-4.5
28	650	59.5	-3.07943788824
28	651	60	2.4604328209581
28	652	60.5	1.7987975966418
28	653	61	1.8587899419852
28	654	61.5	1.9646942954371
28	655	62	1.9987619294599
28	656	62.5	2.1490991688753
28	658	63	1.916851194147
28	659	63.5	2.0346838192688
28	660	64	1.1957030009809
28	661	64.5	-0.91776281909232
28	662	65	-0.2594501925529
28	663	65.5	-0.82153317991459
28	664	66	-0.37055579669748
28	665	66.5	-0.27515095336852
28	666	67	-0.50562974296127
28	667	67.5	-0.2327352537351
28	668	68	-0.41613818743488
28	669	68.5	0.0042301794521151
28	670	69	-0.30211763523513
28	671	69.5	-0.35813722924012
28	672	70	-0.25775907348975
28	673	70.5	0.020860759700255
28	674	71	-0.24517306776061
28	675	71.5	-0.039564746710322
28	676	72	-0.2043874919484
28	677	72.5	-0.01228546581368
28	678	73	-2.2070637087537
28	679	73.5	-3.1807518308572
28	680	74	-3.0661550842355
28	681	74.5	0.91237200699865
28	682	75	0.91144913365019
28	683	75.5	-0.226086464256
28	684	76	-4.2905657909896
28	685	76.5	1.18
28	686	77	2.2792865625024
28	687	77.5	1.9517871453101
28	688	78	2.0841963446606
28	689	78.5	1.9340104309376
28	690	79	2.1068749131635
28	691	79.5	1.7993933621066
28	692	80	-0.11472103164674
28	693	80.5	-0.22072095133107
28	694	81	-0.42173780515954
28	695	81.5	-0.40258629568929
28	696	82	-0.12417941843504
28	697	82.5	-0.029538038982118
28	698	83	-0.33179234166787
28	699	83.5	-0.086197148147239
28	700	84	0.0014935223592047
28	701	84.5	-0.36294589027198
28	702	85	0.11803255841108
28	703	85.5	-2.9057402464816
28	704	86	-3.4039478932582
28	705	86.5	-2.2825513151853
28	706	87	0.83306364974068
28	707	87.5	0.87385688652668
28	708	88	-0.81016252712381
28	709	88.5	-4.4889341942575
28	710	89	1.18
28	711	89.5	2.1007735568192
28	712	90	2.0839128545439
28	713	90.5	1.6507030576654
28	714	91	2.062663568682
28	715	91.5	1.8973795383098
28	716	92	1.8564845963242
28	717	92.5	1.82699283503
28	718	93	0.36816543984252
28	719	93.5	-0.58174571800387
28	720	94	-0.55806934828923
28	721	94.5	-0.18106711601706
28	722	95	-0.31526380251765
28	723	95.5	-0.19153928668017
28	724	96	-0.072008211321268
28	725	96.5	-0.42705065822736
28	726	97	-0.19559258780163
28	727	97.5	-0.038798195838218
28	728	98	-0.10292773347732
28	729	98.5	-0.19478012121259
28	730	99	0.092599535689889
28	731	99.5	-0.1669059297306
28	732	100	-0.21356129030475
28	733	100.5	-0.161906044564
28	734	101	0.01336068710944
28	735	101.5	0.15344564629706
28	736	102	-0.1648678935311
28	737	102.5	-0.19718357612132
28	738	103	0.050071136467864
28	739	103.5	0.010240068915767
28	740	104	-0.083295139389058
28	741	104.5	-1.2190796627774
28	742	105	-3.1636711116826
28	743	105.5	-3.0386237153654
28	744	106	0.012246928740083
28	745	106.5	1.1844801121558
28	746	107	0.65503689375582
28	747	107.5	-4.5
28	748	108	-0.2095275171101
28	749	108.5	2.232156001511
28	750	109	2.0255880971253
28	751	109.5	1.9940198387671
28	752	110	1.6213338519214
28	753	110.5	2.0219121507555
28	754	111	2.0077132119378
28	755	111.5	1.7487148119019
28	756	112	-0.4945471422191
28	757	112.5	-0.30789349707218
28	758	113	-0.38561810690619
28	759	113.5	-0.24519639932607
28	760	114	-0.3171110849011
28	761	114.5	-0.16724268740106
28	762	115	-0.30489710076045
28	763	115.5	-0.055010928004652
28	764	116	-0.24924857752716
28	765	116.5	-0.049346624995948
28	766	117	-0.26463202788324
28	767	117.5	0.16952094551997
28	768	118	-0.32548447412002
28	769	118.5	0.003921507814912
28	770	119	0.014063499009399
28	771	119.5	-0.012097880315569
28	772	120	-0.16143039088965
28	773	120.5	-0.20838969695497
28	774	121	-0.035412561618237
28	775	121.5	0.046046504062481
28	776	122	2.3305936478311
28	777	122.5	2.1680278195674
27	29	14	1.8887404603643
27	30	14.5	2.8800077421027
27	31	15	4.0452028392297
27	32	15.5	4.87295539875
27	33	16	5.686107126886
27	34	16.5	6.6893004815764
27	35	17	7.4946897475439
27	36	17.5	8.360372586464
27	37	18	9.3018270264584
27	38	18.5	10.225957570772
27	39	19	11.172258029819
27	40	19.5	12.114101488226
27	41	20	12.981694703679
27	42	20.5	13.907448065967
27	43	21	14.759898916993
27	44	21.5	14.496101877095
27	45	22	14.293458546081
27	46	22.5	13.967913387549
27	47	23	13.796881563515
27	49	23.5	13.622066024289
27	50	24	13.383037930011
27	51	24.5	13.219914264927
27	52	25	13.13746421639
27	53	25.5	13.064901676726
27	54	26	12.945342757085
27	55	26.5	12.784996924978
27	56	27	12.752869051074
27	57	27.5	12.671143611498
27	58	28	12.630176035074
27	59	28.5	12.643745879959
27	60	29	12.470580188891
27	61	29.5	12.533656787164
27	62	30	12.416133868292
27	63	30.5	12.439706012218
27	436	31	12.367012419764
27	437	31.5	12.369354886401
27	438	32	10.82388900371
27	439	32.5	9.2849657548277
27	474	33	8.1822990791002
27	475	33.5	8.5786587287267
27	476	34	9.0649105373605
27	477	34.5	8.5462396731196
27	478	35	6.3399090568919
27	479	35.5	7.6399090568919
27	480	36	8.581199378703
27	481	36.5	9.5181892790587
27	482	37	10.528739816182
27	483	37.5	11.495015105453
27	484	38	12.43295347154
27	485	38.5	13.340296117916
27	486	39	13.447889061051
27	487	39.5	11.721606686877
27	488	40	11.31884392595
27	489	40.5	12.054982063128
27	490	41	12.014337412883
27	491	41.5	9.764337412883
27	492	42	9.6677023361677
27	493	42.5	10.967702336168
27	525	43	11.808741434438
27	526	43.5	12.883812623285
27	527	44	13.544739104965
27	528	44.5	13.88204278207
27	529	45	14.884205466635
27	530	45.5	15.724974710092
27	531	46	15.573635518498
27	532	46.5	13.346957965965
27	533	47	11.126687940393
27	534	47.5	8.8766879403929
27	535	48	6.6297452681024
27	536	48.5	4.3817931084136
27	537	49	5.4045633411069
27	538	49.5	6.307011366008
27	539	50	7.4250000659829
27	540	50.5	8.3413869726948
27	541	51	9.3350897274619
27	542	51.5	10.315213763212
27	543	52	11.116883620437
27	544	52.5	11.974985960013
27	637	53	13.033721286066
27	638	53.5	14.066297427442
27	639	54	15.082461278458
27	640	54.5	15.966791082079
27	641	55	16.003946252315
27	642	55.5	15.19738024469
27	643	56	13.494605597357
27	644	56.5	11.806363564955
27	645	57	11.041073157795
27	646	57.5	11.05491235967
27	647	58	11.149673158935
27	648	58.5	10.208973563208
27	649	59	7.9589735632084
27	650	59.5	6.4192546190884
27	651	60	7.6494710295674
27	652	60.5	8.5488698278883
27	653	61	9.4782647988809
27	654	61.5	10.460611946599
27	655	62	11.459992911329
27	656	62.5	12.534542495767
27	658	63	13.492968092841
27	659	63.5	14.510310002475
27	660	64	15.108161502965
27	661	64.5	14.649280093419
27	662	65	14.519554997143
27	663	65.5	14.108788407185
27	664	66	13.923510508837
27	665	66.5	13.785935032152
27	666	67	13.533120160672
27	667	67.5	13.416752533804
27	668	68	13.208683440087
27	669	68.5	13.210798529813
27	670	69	13.059739712195
27	671	69.5	12.880671097575
27	672	70	12.75179156083
27	673	70.5	12.76222194068
27	674	71	12.6396354068
27	675	71.5	12.619853033445
27	676	72	12.517659287471
27	677	72.5	12.511516554564
27	678	73	11.407984700187
27	679	73.5	9.8176087847586
27	680	74	8.2845312426408
27	681	74.5	8.7407172461402
27	682	75	9.1964418129652
27	683	75.5	9.0833985808372
27	684	76	6.9381156853424
27	685	76.5	7.5281156853424
27	686	77	8.6677589665936
27	687	77.5	9.6436525392487
27	688	78	10.685750711579
27	689	78.5	11.652755927048
27	690	79	12.70619338363
27	691	79.5	13.605890064683
27	692	80	13.548529548859
27	693	80.5	13.438169073194
27	694	81	13.227300170614
27	695	81.5	13.02600702277
27	696	82	12.963917313552
27	697	82.5	12.949148294061
27	698	83	12.783252123227
27	699	83.5	12.740153549153
27	700	84	12.740900310333
27	701	84.5	12.559427365197
27	702	85	12.618443644403
27	703	85.5	11.165573521162
27	704	86	9.4635995745326
27	705	86.5	8.32232391694
27	706	87	8.7388557418103
27	707	87.5	9.1757841850736
27	708	88	8.7707029215117
27	709	88.5	6.526235824383
27	710	89	7.116235824383
27	711	89.5	8.1666226027926
27	712	90	9.2085790300645
27	713	90.5	10.033930558897
27	714	91	11.065262343238
27	715	91.5	12.013952112393
27	716	92	12.942194410555
27	717	92.5	13.85569082807
27	718	93	14.039773547991
27	719	93.5	13.74890068899
27	720	94	13.469866014845
27	721	94.5	13.379332456836
27	722	95	13.221700555578
27	723	95.5	13.125930912237
27	724	96	13.089926806577
27	725	96.5	12.876401477463
27	726	97	12.778605183562
27	727	97.5	12.759206085643
27	728	98	12.707742218905
27	729	98.5	12.610352158298
27	730	99	12.656651926143
27	731	99.5	12.573198961278
27	732	100	12.466418316126
27	733	100.5	12.385465293844
27	734	101	12.392145637398
27	735	101.5	12.468868460547
27	736	102	12.386434513781
27	737	102.5	12.287842725721
27	738	103	12.312878293954
27	739	103.5	12.317998328412
27	740	104	12.276350758718
27	741	104.5	11.666810927329
27	742	105	10.084975371488
27	743	105.5	8.5656635138052
27	744	106	8.5717869781752
27	745	106.5	9.1640270342531
27	746	107	9.491545481131
27	747	107.5	7.2415454811311
27	748	108	7.136781722576
27	749	108.5	8.2528597233315
27	750	109	9.2656537718942
27	751	109.5	10.262663691278
27	752	110	11.073330617238
27	753	110.5	12.084286692616
27	754	111	13.088143298585
27	755	111.5	13.962500704536
27	756	112	13.715227133426
27	757	112.5	13.56128038489
27	758	113	13.368471331437
27	759	113.5	13.245873131774
27	760	114	13.087317589324
27	761	114.5	13.003696245623
27	762	115	12.851247695243
27	763	115.5	12.823742231241
27	764	116	12.699117942477
27	765	116.5	12.674444629979
27	766	117	12.542128616037
27	767	117.5	12.626889088797
27	768	118	12.464146851737
27	769	118.5	12.466107605645
27	770	119	12.47313935515
27	771	119.5	12.467090414992
27	772	120	12.386375219547
27	773	120.5	12.282180371069
27	774	121	12.26447409026
27	775	121.5	12.287497342292
27	776	122	13.452794166207
27	777	122.5	14.536808075991
26	28	13.5	531.2292903467
26	29	14	530.98033285088
26	30	14.5	530.53404587519
26	31	15	529.90160337771
26	32	15.5	529.09839279245
26	33	16	528.14912908981
26	34	16.5	527.031558264
26	35	17	525.76345441147
26	36	17.5	524.34453129881
26	37	18	522.83844581926
26	38	18.5	521.36688968761
26	39	19	519.75972487032
26	40	19.5	518.01157100558
26	41	20	516.12687279172
26	42	20.5	514.11183929003
26	43	21	511.95080448039
26	44	21.5	509.77266767101
26	45	22	507.6357917879
26	46	22.5	505.53690935712
26	47	23	503.47069358998
26	49	23.5	501.36986227057
26	50	24	499.28081240135
26	51	24.5	497.21595426636
26	52	25	495.16849966015
26	53	25.5	493.13861252308
26	54	26	491.12851115338
26	55	26.5	489.13296110902
26	56	27	487.15399757137
26	57	27.5	485.18813174414
26	58	28	483.22605168367
26	59	28.5	476.64357084769
26	60	29	474.98964430548
26	61	29.5	473.33863949712
26	62	30	471.6904727372
26	63	30.5	470.04413047977
26	436	31	468.40513564876
26	437	31.5	466.77607361691
26	438	32	465.25837409309
26	439	32.5	463.9543042651
26	474	33	462.83961717676
26	475	33.5	461.73597279534
26	476	34	460.57035059341
26	477	34.5	459.36800291018
26	478	35	458.41549144507
26	479	35.5	457.47650215844
26	480	36	462.29192712639
26	481	36.5	465.8162961997
26	482	37	469.69685825741
26	483	37.5	473.98005747944
26	484	38	478.61406728866
26	485	38.5	483.60904476814
26	486	39	488.83688403906
26	487	39.5	493.61810904675
26	488	40	497.94984639215
26	489	40.5	502.46378406603
26	490	41	507.15179014839
26	491	41.5	511.25446564399
26	492	42	514.82738621445
26	493	42.5	518.84672006524
26	525	43	531.28324668434
26	526	43.5	533.11582241664
26	527	44	543.53833771306
26	528	44.5	543.57855651468
26	529	45	553.13483039573
26	530	45.5	555.06102009748
26	531	46	554.52350750131
26	532	46.5	553.78081562463
26	533	47	553.15214672328
26	534	47.5	552.64082517259
26	535	48	542.04828839298
26	536	48.5	542.09872637626
26	537	49	534.44922442763
26	538	49.5	534.39512294988
26	539	50	531.41865709582
26	540	50.5	530.28957953654
26	541	51	529.01576142509
26	542	51.5	527.60613879244
26	543	52	526.06711200331
26	544	52.5	524.4092820457
26	637	53	522.60843498705
26	638	53.5	520.66354333324
26	639	54	518.56599370247
26	640	54.5	516.32948003635
26	641	55	514.04302870929
26	642	55.5	511.80786069322
26	643	56	509.78888245813
26	644	56.5	508.01758189569
26	645	57	506.43167126422
26	646	57.5	504.85784543642
26	647	58	503.27777304091
26	648	58.5	501.72968276383
26	649	59	500.46612996958
26	650	59.5	499.50284037121
26	651	60	476.80774922139
26	652	60.5	473.97782873862
26	653	61	470.83513331501
26	654	61.5	467.36743346987
26	655	62	463.55302717992
26	656	62.5	459.38868341278
26	658	63	454.8770105442
26	659	63.5	450.02134633564
26	660	64	444.8726625285
26	661	64.5	439.75413419823
26	662	65	434.7372632381
26	663	65.5	429.80815658412
26	664	66	424.96546963986
26	665	66.5	420.19239922502
26	666	67	415.48956801663
26	667	67.5	405.28941608248
26	668	68	403.4750362134
26	669	68.5	401.67859468454
26	670	69	399.89733495117
26	671	69.5	398.12863884148
26	672	70	396.38041087609
26	673	70.5	394.63855381689
26	674	71	392.90199929778
26	675	71.5	391.17088586916
26	676	72	389.33953773447
26	677	72.5	387.51530960971
26	678	73	385.7603505891
26	679	73.5	384.23367469168
26	680	74	382.93286533891
26	681	74.5	381.68677011936
26	682	75	380.37969207846
26	683	75.5	379.02002173727
26	684	76	377.87986208428
26	685	76.5	376.85846224052
26	686	77	371.16437990866
26	687	77.5	370.06738543639
26	688	78	368.85132962552
26	689	78.5	367.50749033452
26	690	79	366.04340135267
26	691	79.5	364.46009412934
26	692	80	362.85241196573
26	693	80.5	361.26139074161
26	694	81	359.69059763348
26	695	81.5	358.13958738727
26	696	82	356.5911539035
26	697	82.5	350.53598731801
26	698	83	348.99933836817
26	699	83.5	347.4683927598
26	700	84	345.94730947783
26	701	84.5	344.43607918832
26	702	85	342.92480242733
26	703	85.5	341.50883137881
26	704	86	340.29085588142
26	705	86.5	339.25113395908
26	706	87	338.21872398478
26	707	87.5	337.13649839972
26	708	88	336.02530065384
26	709	88.5	335.13497338758
26	710	89	334.34368271818
26	711	89.5	326.46372829876
26	712	90	325.18104268928
26	713	90.5	323.76064234643
26	714	91	322.20062178789
26	715	91.5	320.49210087148
26	716	92	318.64876705028
26	717	92.5	316.6683947439
26	718	93	314.60521051148
26	719	93.5	312.58128972226
26	720	94	310.58191555128
26	721	94.5	308.61455503971
26	722	95	306.67097526457
26	723	95.5	304.74143875603
26	724	96	302.81702205105
26	725	96.5	300.8949268231
26	726	97	298.99388966723
26	727	97.5	297.09296153789
26	728	98	295.20771082723
26	729	98.5	293.33231515911
26	730	99	291.46430739567
26	731	99.5	289.60258380064
26	732	100	287.74772652663
26	733	100.5	285.90355105207
26	734	101	284.06224334006
26	735	101.5	282.21638764695
26	736	102	280.38637385251
26	737	102.5	278.56017713519
26	738	103	276.74325972015
26	739	103.5	274.92266826467
26	740	104	273.09899888677
26	741	104.5	271.3055331737
26	742	105	269.72078932677
26	743	105.5	268.36558883179
26	744	106	267.11995124879
26	745	106.5	265.79147763894
26	746	107	264.39091607837
26	747	107.5	263.18622650106
26	748	108	262.18614194521
26	749	108.5	248.81370305721
26	750	109	244.80062604204
26	751	109.5	240.32417387334
26	752	110	235.45020118357
26	753	110.5	230.16334528951
26	754	111	224.41298205085
26	755	111.5	218.18782535444
26	756	112	211.94054262981
26	757	112.5	205.7621271187
26	758	113	199.64028023811
26	759	113.5	193.6064934289
26	760	114	187.64516802275
26	761	114.5	181.72174901364
26	762	115	175.86640232948
26	763	115.5	170.03384811648
26	764	116	164.24553600483
26	765	116.5	158.48590319566
26	766	117	152.75096920625
26	767	117.5	147.01789095691
26	768	118	141.32938453642
26	769	118.5	135.64099072686
26	770	119	129.96360776372
26	771	119.5	124.3106141276
26	772	120	118.67397065668
26	773	120.5	113.0419370019
26	774	121	107.42387693947
26	775	121.5	101.81425181763
26	776	122	95.907852335642
26	777	122.5	89.48247578522
25	28	13.5	1060.6217741333
25	29	14	1061.2441678728
25	30	14.5	1062.359885312
25	31	15	1063.9409915557
25	32	15.5	1065.9490180189
25	33	16	1068.3221772755
25	34	16.5	1071.11610434
25	35	17	1074.2863639713
25	36	17.5	1077.833671753
25	37	18	1081.8247972869
25	38	18.5	1086.3114596217
25	39	19	1091.2115824893
25	40	19.5	1096.5415702022
25	41	20	1102.2878712143
25	42	20.5	1108.4315545717
25	43	21	1115.0203847741
25	44	21.5	1121.6613576684
25	45	22	1128.1765291476
25	46	22.5	1134.5758614904
25	47	23	1140.8755956689
25	49	23.5	1147.0913579776
25	50	24	1153.1858072474
25	51	24.5	1159.2096812289
25	52	25	1165.182783362
25	53	25.5	1171.1046353784
25	54	26	1176.9687657687
25	55	26.5	1182.7904451312
25	56	27	1188.5637361688
25	57	27.5	1194.298816854
25	58	28	1200.0228532057
25	59	28.5	1218.549528288
25	60	29	1223.0737399702
25	61	29.5	1227.5899594338
25	62	30	1232.0984155951
25	63	30.5	1236.6018809449
25	436	31	1241.0852478734
25	437	31.5	1245.5414442567
25	438	32	1249.6930155269
25	439	32.5	1253.2602162457
25	474	33	1256.3093724315
25	475	33.5	1259.3283219894
25	476	34	1262.5168079642
25	477	34.5	1265.8057541753
25	478	35	1268.4112891782
25	479	35.5	1270.9798351152
25	480	36	1282.6146369805
25	481	36.5	1283.8661935438
25	482	37	1285.2442396029
25	483	37.5	1286.765268186
25	484	38	1288.4108748947
25	485	38.5	1290.1846666622
25	486	39	1292.0411511605
25	487	39.5	1293.7390362044
25	488	40	1295.2773014065
25	489	40.5	1296.8802686907
25	490	41	1298.5450502896
25	491	41.5	1300.0019721773
25	492	42	1301.2707701087
25	493	42.5	1302.6980961226
25	525	43	1299.5975036472
25	526	43.5	1298.5412273571
25	527	44	1296.9376675426
25	528	44.5	1296.9457113029
25	529	45	1303.0524059286
25	530	45.5	1306.8264247829
25	531	46	1319.7807301751
25	532	46.5	1320.9123218265
25	533	47	1321.8668452893
25	534	47.5	1322.6431973819
25	535	48	1328.1738569754
25	536	48.5	1331.3732046015
25	537	49	1333.0466531573
25	538	49.5	1333.130264532
25	539	50	1338.9698379878
25	540	50.5	1342.3277439758
25	541	51	1346.1052966434
25	542	51.5	1350.2826660085
25	543	52	1354.8435202485
25	544	52.5	1359.7564436912
25	637	53	1365.0931935133
25	638	53.5	1370.856814659
25	639	54	1377.0728325962
25	640	54.5	1383.6941388885
25	641	55	1390.4622702299
25	642	55.5	1397.0785976906
25	643	56	1403.0586471336
25	644	56.5	1408.3110106792
25	645	57	1413.013645209
25	646	57.5	1417.6804451754
25	647	58	1422.365767828
25	648	58.5	1426.9562552411
25	649	59	1430.7030155456
25	650	59.5	1433.5582285189
25	651	60	1438.066161635
25	652	60.5	1437.0654554769
25	653	61	1435.9541469851
25	654	61.5	1434.7279116154
25	655	62	1433.3790751773
25	656	62.5	1431.9064951251
25	658	63	1430.3110938229
25	659	63.5	1428.594051558
25	660	64	1426.7733927715
25	661	64.5	1424.9633974547
25	662	65	1423.1893498463
25	663	65.5	1421.4463371317
25	664	66	1419.7338838396
25	665	66.5	1418.0460480907
25	666	67	1416.3830500738
25	667	67.5	1422.0617517525
25	668	68	1427.5048913598
25	669	68.5	1432.8942159464
25	670	69	1438.2379951465
25	671	69.5	1443.5440834756
25	672	70	1448.7887673717
25	673	70.5	1454.0143385493
25	674	71	1459.2240021067
25	675	71.5	1464.4111893048
25	676	72	1469.5181898424
25	677	72.5	1474.6053351194
25	678	73	1479.4993126719
25	679	73.5	1483.7566870515
25	680	74	1487.3841972656
25	681	74.5	1490.8591285665
25	682	75	1494.5041199973
25	683	75.5	1498.2957732782
25	684	76	1501.4752866927
25	685	76.5	1504.3236198154
25	686	77	1521.1954587626
25	687	77.5	1524.6496201072
25	688	78	1528.4786758417
25	689	78.5	1532.7100898092
25	690	79	1537.3201399908
25	691	79.5	1542.3055786103
25	692	80	1547.3677678229
25	693	80.5	1552.3774959023
25	694	81	1557.3235307016
25	695	81.5	1562.2072742143
25	696	82	1567.0829041463
25	697	82.5	1585.5792062451
25	698	83	1590.1400160642
25	699	83.5	1594.6838982333
25	700	84	1599.1985087882
25	701	84.5	1603.6838754323
25	702	85	1608.1693800049
25	703	85.5	1612.3720150065
25	704	86	1615.9869946078
25	705	86.5	1619.0729134528
25	706	87	1622.1371302661
25	707	87.5	1625.3492009706
25	708	88	1628.6472617222
25	709	88.5	1631.2897737537
25	710	89	1633.6383428626
25	711	89.5	1657.0702376613
25	712	90	1660.8875977401
25	713	90.5	1665.1148062818
25	714	91	1669.7575341321
25	715	91.5	1674.8422092013
25	716	92	1680.3280966931
25	717	92.5	1686.2218200869
25	718	93	1692.3619974351
25	719	93.5	1698.3853240915
25	720	94	1704.3355983337
25	721	94.5	1710.1905977365
25	722	95	1715.9748240417
25	723	95.5	1721.7172566252
25	724	96	1727.4029352695
25	725	96.5	1733.0452148096
25	726	97	1738.6256787188
25	727	97.5	1744.2058225823
25	728	98	1749.7399456362
25	729	98.5	1755.2451393717
25	730	99	1760.7286460321
25	731	99.5	1766.1937056175
25	732	100	1771.6386092283
25	733	100.5	1777.0521565891
25	734	101	1782.4572856792
25	735	101.5	1787.8757652944
25	736	102	1793.2545613128
25	737	102.5	1798.6263189568
25	738	103	1803.9707815332
25	739	103.5	1809.3260512995
25	740	104	1814.6903747746
25	741	104.5	1819.9658541696
25	742	105	1824.6273781953
25	743	105.5	1828.6137004513
25	744	106	1832.2777434017
25	745	106.5	1836.1854485251
25	746	107	1840.3052003555
25	747	107.5	1843.8487947471
25	748	108	1846.7905434682
25	749	108.5	1853.6922418496
25	750	109	1852.3046127169
25	751	109.5	1850.7567591829
25	752	110	1849.0714522549
25	753	110.5	1847.2433798728
25	754	111	1845.2550373807
25	755	111.5	1843.1025223019
25	756	112	1840.9423565548
25	757	112.5	1838.8060034959
25	758	113	1836.6892105599
25	759	113.5	1834.6028667581
25	760	114	1832.5415784321
25	761	114.5	1830.4933972606
25	762	115	1828.4687539233
25	763	115.5	1826.4519916949
25	764	116	1824.450527361
25	765	116.5	1822.458979666
25	766	117	1820.4898479562
25	767	117.5	1818.5545805274
25	768	118	1816.6343588393
25	769	118.5	1814.7141751643
25	770	119	1812.797708329
25	771	119.5	1810.8894743954
25	772	120	1808.9867596508
25	773	120.5	1807.0856010035
25	774	121	1805.1891593051
25	775	121.5	1803.2955649194
25	776	122	1801.3017908871
25	777	122.5	1799.1328300924
34	35	17	2.4615765586339
34	36	17.5	2.7280815780625
34	37	18	3.4578347228128
34	38	18.5	4.0399871915706
34	39	19	4.7775881197716
34	40	19.5	5.1747058176556
34	41	20	6.134236294393
34	42	20.5	6.6411539931708
34	43	21	6.8860456814129
34	44	21.5	6.8638808673407
34	45	22	9.0019057795124
34	46	22.5	3.5842763146293
34	47	23	2.0264373559189
34	49	23.5	2.5771345769314
34	50	24	1.1842857689729
34	51	24.5	2.1435719486138
34	52	25	2.3163816447335
34	53	25.5	1.9430565883722
34	54	26	1.5726159260519
34	55	26.5	1.9170329548695
34	56	27	1.7666514772319
34	57	27.5	1.9310007823276
34	58	28	2.1924627267973
34	59	28.5	2.1062214165955
34	60	29	2.2396192240181
34	61	29.5	1.8766215846466
34	62	30	1.4666458360325
34	63	30.5	1.8062889665799
34	436	31	2.238749407671
34	437	31.5	2.1877698859256
34	438	32	1.424799807572
34	439	32.5	2.123319627447
34	474	33	0.973
34	475	33.5	0.973
34	476	34	0.973
34	477	34.5	0.973
34	478	35	0.973
34	479	35.5	1.2629243783344
34	480	36	2.9482470947647
34	481	36.5	4.5308049834849
34	482	37	0.973
34	483	37.5	0.973
34	484	38	6.2157890291321
34	485	38.5	5.0752428586373
34	486	39	6.3330524605125
34	487	39.5	6.4069353997106
34	488	40	6.6135099615552
34	489	40.5	7.4800391716575
34	490	41	7.1244201765559
34	491	41.5	2.4453887648843
34	492	42	0.973
34	493	42.5	3.9031186155265
34	525	43	2.0048552766379
34	526	43.5	0.973
34	527	44	0.973
34	528	44.5	4.639214765834
34	529	45	8.6728455302774
34	530	45.5	7.9630981661754
34	531	46	6.7277657788187
34	532	46.5	2.3143590795293
34	533	47	2.1642491227106
34	534	47.5	1.3068393742252
34	535	48	0.973
34	536	48.5	0.973
34	537	49	0.973
34	538	49.5	0.973
34	539	50	1.921676779936
34	540	50.5	1.9778611148538
34	541	51	4.2760425189914
34	542	51.5	3.6888926382617
34	543	52	5.0049621720657
34	544	52.5	4.7131365794415
34	637	53	6.6341717861592
34	638	53.5	4.6821937242138
34	639	54	2.2855647710518
34	640	54.5	1.5153056597095
34	641	55	1.9468284351816
34	642	55.5	2.0201068201394
34	643	56	2.2478015200358
34	644	56.5	2.027625581754
34	645	57	0.973
34	646	57.5	0.973
34	647	58	0.973
34	648	58.5	0.973
34	649	59	0.973
34	650	59.5	0.973
34	651	60	3.6008127618837
34	652	60.5	3.0152523398914
34	653	61	1.9920608609695
34	654	61.5	0.973
34	655	62	0.973
34	656	62.5	6.2798995103439
34	658	63	5.991757976028
34	659	63.5	6.9775895381018
34	660	64	6.266984101648
34	661	64.5	7.3267159378301
34	662	65	8.0565394964904
34	663	65.5	1.6759462237449
34	664	66	1.8908441359521
34	665	66.5	1.9458327568026
34	666	67	2.4454050920767
34	667	67.5	1.3667689786108
34	668	68	2.371057649348
34	669	68.5	1.7741942349436
34	670	69	1.6868329536068
34	671	69.5	2.3935164535742
34	672	70	1.831512644502
34	673	70.5	1.4719919822468
34	674	71	2.5561653118976
34	675	71.5	1.6490561290136
34	676	72	1.7884535511491
34	677	72.5	2.5623868570262
34	678	73	1.1600618527481
34	679	73.5	2.36105961618
34	680	74	0.973
34	681	74.5	0.973
34	682	75	0.973
34	683	75.5	0.973
34	684	76	0.973
34	685	76.5	0.973
34	686	77	2.8707506913445
34	687	77.5	4.3194018147518
34	688	78	0.973
34	689	78.5	0.973
34	690	79	3.5450670240279
34	691	79.5	5.9705154542848
34	692	80	6.3379888605286
34	693	80.5	7.077273580803
34	694	81	7.6416480927928
34	695	81.5	7.7043200375877
34	696	82	6.1362703640772
34	697	82.5	1.9697119715594
34	698	83	1.5321035579152
34	699	83.5	1.7362177803014
34	700	84	2.5915387975993
34	701	84.5	1.7506282198244
34	702	85	1.8055982165735
34	703	85.5	1.9024484089719
34	704	86	2.1237081935616
34	705	86.5	0.973
34	706	87	0.973
34	707	87.5	0.973
34	708	88	0.973
34	709	88.5	0.973
34	710	89	0.973
34	711	89.5	2.6696791319818
34	712	90	4.0235075289394
34	713	90.5	0.973
34	714	91	0.973
34	715	91.5	6.3647955121195
34	716	92	5.9355284398988
34	717	92.5	7.0399292175109
34	718	93	6.3515413537047
34	719	93.5	7.8530426976055
34	720	94	7.1984400363879
34	721	94.5	4.1180752935914
34	722	95	1.9416820606684
34	723	95.5	2.0881380682972
34	724	96	1.9452560811098
34	725	96.5	1.8523215389297
34	726	97	2.0958634077739
34	727	97.5	2.1646753241753
34	728	98	1.6805876847034
34	729	98.5	1.7025082030149
34	730	99	2.0095443519562
34	731	99.5	2.4253092330998
34	732	100	1.8706804683701
34	733	100.5	1.6934883295013
34	734	101	1.6884130998934
34	735	101.5	2.6506982335897
34	736	102	1.7370213536082
34	737	102.5	1.7059695681522
34	738	103	2.3200962955865
34	739	103.5	1.9844662122076
34	740	104	1.3849719826724
34	741	104.5	2.3788539555419
34	742	105	0.973
34	743	105.5	0.973
34	744	106	0.973
34	745	106.5	2.2054118392093
34	746	107	1.79905390721
34	747	107.5	0.973
34	748	108	0.973
34	749	108.5	3.2423113009001
34	750	109	3.6423709995151
34	751	109.5	0.973
34	752	110	0.973
34	753	110.5	6.3016440824201
34	754	111	5.8504584857911
34	755	111.5	6.3907356280332
34	756	112	6.9055141001885
34	757	112.5	7.6989114242837
34	758	113	7.639924435925
34	759	113.5	4.4099780677502
34	760	114	2.15652746068
34	761	114.5	1.4870610822926
34	762	115	2.4977420364839
34	763	115.5	1.8015072437879
34	764	116	1.5304273761393
34	765	116.5	2.255000493994
34	766	117	2.1952957380132
34	767	117.5	1.4326538702355
34	768	118	2.6631660644815
34	769	118.5	1.5313697214427
34	770	119	2.3077765371527
34	771	119.5	1.2303497852534
34	772	120	2.0243659078069
34	773	120.5	2.2335119073418
34	774	121	1.6387625243707
34	775	121.5	2.4765725624703
34	776	122	1.9684168912146
34	777	122.5	2.0046188208692
34	778	123	1.917271148489
34	780	123.5	1.6634754417365
34	781	124	2.365717911665
34	782	124.5	1.4910409460935
34	783	125	2.4382691512321
33	35	17	1.9290286127074
33	36	17.5	1.7188891613949
33	37	18	1.9692718024552
33	38	18.5	2.0074817469157
33	39	19	2.1123124370538
33	40	19.5	2.0143575526029
33	41	20	2.185647830232
33	42	20.5	2.1299295970798
33	43	21	1.9963352779532
33	44	21.5	1.8062742692046
33	45	22	2.3051361430576
33	46	22.5	0.52371581089758
33	47	23	0.026635203505869
33	49	23.5	0.19751621864736
33	50	24	-0.24131527850404
33	51	24.5	0.063591564130039
33	52	25	0.1162991687376
33	53	25.5	-0.0019503961037834
33	54	26	-0.1180691870302
33	55	26.5	-0.0083230829471717
33	56	27	-0.055479605151341
33	57	27.5	-0.0029963836446392
33	58	28	0.078996191816405
33	59	28.5	0.050691409842109
33	60	29	0.091340200416745
33	61	29.5	-0.02318569077179
33	62	30	-0.15160548591055
33	63	30.5	-0.042838110579176
33	436	31	0.09338791565504
33	437	31.5	0.075808555679394
33	438	32	-0.16459674271289
33	439	32.5	0.057238235659899
33	474	33	-1.176399662869
33	475	33.5	-0.75335579084021
33	476	34	-0.44064610545172
33	477	34.5	-0.76385056692462
33	478	35	-3.1445333157495
33	479	35.5	-0.17237648136818
33	480	36	0.51845547072419
33	481	36.5	1.0936404394474
33	482	37	-4.3310829874241
33	483	37.5	-4.485721075447
33	484	38	2.6
33	485	38.5	1.7371436672704
33	486	39	2.0687786953244
33	487	39.5	1.881936794878
33	488	40	1.7824926934857
33	489	40.5	1.9096862779418
33	490	41	1.6510500906379
33	491	41.5	0.15694792359602
33	492	42	-0.66224078706091
33	493	42.5	0.62023873230999
33	525	43	0.017815162218177
33	526	43.5	-3.0105841816887
33	527	44	-4.4517515190845
33	528	44.5	1.2299653383987
33	529	45	2.5420929520763
33	530	45.5	2.0588245698344
33	531	46	1.5228913554033
33	532	46.5	0.11578337747603
33	533	47	0.067023362466134
33	534	47.5	-0.20250006111804
33	535	48	-0.91388906028588
33	536	48.5	-4.2584184339806
33	537	49	-0.82640757086315
33	538	49.5	-0.66506919476983
33	539	50	0.10889734431005
33	540	50.5	0.12988066817979
33	541	51	1.0308435690569
33	542	51.5	0.75537342601729
33	543	52	1.1815105103561
33	544	52.5	1.0130486242516
33	637	53	1.5606437537695
33	638	53.5	0.87322684689251
33	639	54	0.10739876776934
33	640	54.5	-0.13570806173142
33	641	55	0.001928880228661
33	642	55.5	0.024902876419947
33	643	56	0.095662660929374
33	644	56.5	0.025341110029256
33	645	57	-0.77242306990062
33	646	57.5	-0.51810370902351
33	647	58	-0.30599843882331
33	648	58.5	-0.69146004871747
33	649	59	-3.3198302111425
33	650	59.5	-3.3265280043846
33	651	60	0.90816741951415
33	652	60.5	0.6096886115781
33	653	61	0.15297192343186
33	654	61.5	-4.3135357424954
33	655	62	-0.24
33	656	62.5	2.3441110656457
33	658	63	1.941270553451
33	659	63.5	2.1069008486485
33	660	64	1.6624523397349
33	661	64.5	1.8693078204757
33	662	65	1.9341748536537
33	663	65.5	-0.085690100360662
33	664	66	-0.017154670865274
33	665	66.5	0.00032519903499661
33	666	67	0.15587009419687
33	667	67.5	-0.18357296759263
33	668	68	0.1333860466443
33	669	68.5	-0.054914473928513
33	670	69	-0.081656565247101
33	671	69.5	0.14041940184776
33	672	70	-0.037023660577834
33	673	70.5	-0.14961454572156
33	674	71	0.19180411583744
33	675	71.5	-0.094276297623292
33	676	72	-0.049332489850929
33	677	72.5	0.19266811234411
33	678	73	-0.24904623124748
33	679	73.5	0.13142097728792
33	680	74	-0.7800507385418
33	681	74.5	-1.0914966466694
33	682	75	-0.30383346255033
33	683	75.5	-0.35292395106172
33	684	76	-2.9600796226413
33	685	76.5	-1.0792959226129
33	686	77	0.48939836204337
33	687	77.5	1.0202466868888
33	688	78	-3.3345015872712
33	689	78.5	-4.5
33	690	79	1.18
33	691	79.5	2.198605125933
33	692	80	2.0843828952033
33	693	80.5	2.1333593067434
33	694	81	2.1101932281721
33	695	81.5	1.9383904133318
33	696	82	1.3246247228405
33	697	82.5	0.0059254950005574
33	698	83	-0.13120560314972
33	699	83.5	-0.06547075026203
33	700	84	0.20253891727887
33	701	84.5	-0.062667986429293
33	702	85	-0.044637045268903
33	703	85.5	-0.013674150034785
33	704	86	0.055677278875372
33	705	86.5	-1.7149907222957
33	706	87	-0.48751727508347
33	707	87.5	-0.27610373198208
33	708	88	-0.53645101567728
33	709	88.5	-3.3459166984038
33	710	89	-1.1544648896052
33	711	89.5	0.44268561537745
33	712	90	0.96640956133485
33	713	90.5	-2.7265584955853
33	714	91	-4.4888058939848
33	715	91.5	2.6
33	716	92	2.0580973296473
33	717	92.5	2.2530534865335
33	718	93	1.7753921946324
33	719	93.5	2.1127185602067
33	720	94	1.7292530929251
33	721	94.5	0.69232966831039
33	722	95	-0.00051382438745406
33	723	95.5	0.045343673140742
33	724	96	-6.3524385915059e-05
33	725	96.5	-0.029188376697711
33	726	97	0.047488839239811
33	727	97.5	0.068129481594081
33	728	98	-0.084202452874745
33	729	98.5	-0.076303550656885
33	730	99	0.021211681403219
33	731	99.5	0.15045295760967
33	732	100	-0.024800620456226
33	733	100.5	-0.079988796319814
33	734	101	-0.080629703258165
33	735	101.5	0.22097587728873
33	736	102	-0.06707506466191
33	737	102.5	-0.075987822110765
33	738	103	0.11695495814085
33	739	103.5	0.010561738735998
33	740	104	-0.17762190425768
33	741	104.5	0.13618067746982
33	742	105	-0.56273771053002
33	743	105.5	-2.8571634049691
33	744	106	-0.95282858182771
33	745	106.5	0.16704213231931
33	746	107	0.013426200862309
33	747	107.5	-2.8722588547628
33	748	108	-1.4733019689283
33	749	108.5	0.73014253808334
33	750	109	0.85675505635264
33	751	109.5	-2.0735796988865
33	752	110	-4.5
33	753	110.5	2.6
33	754	111	2.0439835516782
33	755	111.5	2.0301052408246
33	756	112	2.0091156364651
33	757	112.5	2.0810946389055
33	758	113	1.8796400459902
33	759	113.5	0.78414727669764
33	760	114	0.066263736928811
33	761	114.5	-0.14473115578759
33	762	115	0.17387576903682
33	763	115.5	-0.046136450353078
33	764	116	-0.13086522690021
33	765	116.5	0.098438741597345
33	766	117	0.078042798275128
33	767	117.5	-0.16218739644158
33	768	118	0.2248203795217
33	769	118.5	-0.1316545082815
33	770	119	0.11283357752952
33	771	119.5	-0.22656359273009
33	772	120	0.026398457689211
33	773	120.5	0.091364916344173
33	774	121	-0.09647347235121
33	775	121.5	0.16705795456656
33	776	122	0.0059674584725862
33	777	122.5	0.017162951217031
33	778	123	-0.01033424402587
33	780	123.5	-0.089653682834467
33	781	124	0.13084629827179
33	782	124.5	-0.14431686209515
33	783	125	0.15359038509428
32	34	16.5	1.6661626090872
32	35	17	2.6306769154409
32	36	17.5	3.4901214961383
32	37	18	4.4747573973659
32	38	18.5	5.4784982708238
32	39	19	6.5346544893507
32	40	19.5	7.5418332656521
32	41	20	8.6346571807681
32	42	20.5	9.699621979308
32	43	21	10.697789618285
32	44	21.5	11.600926752887
32	45	22	12.753494824416
32	46	22.5	13.015352729864
32	47	23	13.028670331617
32	49	23.5	13.127428440941
32	50	24	13.006770801689
32	51	24.5	13.038566583754
32	52	25	13.096716168123
32	53	25.5	13.095740970071
32	54	26	13.036706376556
32	55	26.5	13.032544835082
32	56	27	13.004805032507
32	57	27.5	13.003306840684
32	58	28	13.042804936593
32	59	28.5	13.068150641514
32	60	29	13.113820741722
32	61	29.5	13.102227896336
32	62	30	13.026425153381
32	63	30.5	13.005006098091
32	436	31	13.051700055919
32	437	31.5	13.089604333758
32	438	32	13.007305962402
32	439	32.5	13.035925080232
32	474	33	12.447725248797
32	475	33.5	12.071047353377
[...]
16	54	26	465.62736130791
16	55	26.5	464.10944152226
16	56	27	462.60004802678
16	57	27.5	461.08017187127
16	58	28	459.73742518529
16	59	28.5	458.6871288381
16	60	29	457.82120380973
16	61	29.5	449.69058046115
16	62	30	448.63096021518
16	63	30.5	447.47816559716
16	436	31	446.41522996842
16	437	31.5	445.47933502817
16	438	32	444.67071850114
16	439	32.5	443.98915085765
16	474	33	443.42331356373
16	475	33.5	442.9637913708
16	476	34	442.59914070524
16	477	34.5	442.32535359452
16	478	35	442.12196069872
16	479	35.5	441.97895624392
16	480	36	441.88148717118
16	481	36.5	441.81685880703
16	482	37	441.77591840316
16	483	37.5	441.74968467121
16	484	38	441.73315366324
16	485	38.5	441.72283217609
16	486	39	441.71643190772
16	487	39.5	441.71243773124
16	488	40	441.70992916101
16	489	40.5	441.70834089007
16	490	41	441.70736377855
16	491	41.5	441.70675066933
16	492	42	441.70637000745
16	493	42.5	441.7061349138
16	525	43	441.70598698922
16	526	43.5	441.70589549712
16	527	44	441.70583875235
16	528	44.5	441.70580350565
16	529	45	441.70578197256
16	530	45.5	441.70576884287
16	531	46	441.7057610577
16	532	46.5	441.70575638307
16	533	47	441.70575354957
16	534	47.5	441.70575187491
16	535	48	441.70575162771
16	536	48.5	441.70575162771
16	537	49	441.70575162771
16	538	49.5	441.70575162771
16	539	50	441.70575162771
16	540	50.5	441.70575162771
16	541	51	441.70575162771
16	542	51.5	441.70575162771
16	543	52	441.70575162771
16	544	52.5	441.70575162771
16	637	53	441.70575162771
16	638	53.5	441.70575162771
16	639	54	441.70575162771
16	640	54.5	441.70575162771
16	641	55	441.70575162771
16	642	55.5	441.70575162771
16	643	56	441.70575162771
16	644	56.5	441.70575162771
16	645	57	441.70575162771
16	646	57.5	441.70575162771
16	647	58	441.70575162771
16	648	58.5	441.70575162771
16	649	59	441.70575162771
16	650	59.5	441.70575162771
16	651	60	441.70575162771
16	652	60.5	441.70575162771
16	653	61	441.70575162771
16	654	61.5	441.70575162771
16	655	62	441.70575162771
16	656	62.5	441.70575162771
16	658	63	441.70575162771
16	659	63.5	441.70575162771
16	660	64	441.70575162771
16	661	64.5	441.70575162771
16	662	65	441.70575162771
16	663	65.5	441.70575162771
16	664	66	441.70575162771
16	665	66.5	441.70575162771
16	666	67	441.70575162771
16	667	67.5	441.70575162771
16	668	68	441.70575162771
16	669	68.5	441.70575162771
16	670	69	441.70575162771
16	671	69.5	441.70575162771
16	672	70	441.70575162771
16	673	70.5	441.70575162771
16	674	71	441.70575162771
16	675	71.5	441.70575162771
16	676	72	441.70575162771
16	677	72.5	441.70575162771
16	678	73	441.70575162771
16	679	73.5	441.70575162771
16	680	74	441.70575162771
16	681	74.5	441.70575162771
16	682	75	441.70575162771
16	683	75.5	441.70575162771
16	684	76	441.70575162771
16	685	76.5	441.70575162771
16	686	77	441.70575162771
16	687	77.5	441.70575162771
16	688	78	441.70575162771
16	689	78.5	441.70575162771
16	690	79	441.70575162771
16	691	79.5	441.70575162771
16	692	80	441.70575162771
16	693	80.5	441.70575162771
16	694	81	441.70575162771
16	695	81.5	441.70575162771
16	696	82	441.70575162771
16	697	82.5	441.70575162771
16	698	83	441.70575162771
16	699	83.5	441.70575162771
16	700	84	441.70575162771
16	701	84.5	441.70575162771
16	702	85	441.70575162771
16	703	85.5	441.70575162771
16	704	86	441.70575162771
16	705	86.5	441.70575162771
16	706	87	441.70575162771
16	707	87.5	441.70575162771
16	708	88	441.70575162771
16	709	88.5	441.70575162771
16	710	89	441.70575162771
16	711	89.5	441.70575162771
16	712	90	441.70575162771
16	713	90.5	441.70575162771
16	714	91	441.70575162771
16	715	91.5	441.70575162771
16	716	92	441.70575162771
16	717	92.5	441.70575162771
16	718	93	441.70575162771
16	719	93.5	441.70575162771
16	720	94	441.70575162771
16	721	94.5	441.70575162771
16	722	95	441.70575162771
16	723	95.5	441.70575162771
16	724	96	441.70575162771
16	725	96.5	441.70575162771
16	726	97	441.70575162771
16	727	97.5	441.70575162771
16	728	98	441.70575162771
16	729	98.5	441.70575162771
16	730	99	441.70575162771
16	731	99.5	441.70575162771
16	732	100	441.70575162771
16	733	100.5	441.70575162771
16	734	101	441.70575162771
16	735	101.5	441.70575162771
16	736	102	441.70575162771
16	737	102.5	441.70575162771
16	738	103	441.70575162771
16	739	103.5	441.70575162771
16	740	104	441.70575162771
16	741	104.5	441.70575162771
16	742	105	441.70575162771
16	743	105.5	441.70575162771
16	744	106	441.70575162771
16	745	106.5	441.70575162771
16	746	107	441.70575162771
16	747	107.5	441.70575162771
16	748	108	441.70575162771
16	749	108.5	441.70575162771
16	750	109	441.70575162771
16	751	109.5	441.70575162771
16	752	110	441.70575162771
16	753	110.5	441.70575162771
16	754	111	441.70575162771
16	755	111.5	441.70575162771
16	756	112	441.70575162771
16	757	112.5	441.70575162771
16	758	113	441.70575162771
16	759	113.5	441.70575162771
16	760	114	441.70575162771
16	761	114.5	441.70575162771
16	762	115	441.70575162771
16	763	115.5	441.70575162771
16	764	116	441.70575162771
16	765	116.5	441.70575162771
16	766	117	441.70575162771
16	767	117.5	441.70575162771
16	768	118	441.70575162771
16	769	118.5	441.70575162771
16	770	119	441.70575162771
16	771	119.5	441.70575162771
16	772	120	441.70575162771
16	773	120.5	441.70575162771
16	774	121	441.70575162771
16	775	121.5	441.70575162771
16	776	122	441.70575162771
16	777	122.5	441.70575162771
16	778	123	441.70575162771
16	780	123.5	441.70571608905
16	781	124	441.70325410874
16	782	124.5	441.68390073121
16	783	125	441.6180846763
16	784	125.5	441.48555569173
16	785	126	441.27050291395
16	786	126.5	440.95908766302
16	787	127	440.54287400465
16	788	127.5	440.01852451733
16	789	128	439.37575115501
16	790	128.5	438.61918859988
16	791	129	437.74929489996
16	792	129.5	436.76182016982
16	793	130	435.65560064279
16	794	130.5	434.4257881092
16	795	131	433.09883767771
16	796	131.5	427.08585393202
16	797	132	425.85038349097
16	798	132.5	424.71173157463
16	799	133	423.63187253054
16	800	133.5	422.53837762514
16	801	134	421.42462344409
16	802	134.5	420.33618733987
16	803	135	419.3351839664
16	804	135.5	418.28831888753
16	805	136	417.1889321346
16	806	136.5	416.15522519337
16	807	137	415.24167921496
16	808	137.5	414.25708772951
16	809	138	413.20218051393
16	810	138.5	412.21245871692
16	811	139	411.32883290514
16	812	139.5	405.5954780989
16	813	140	404.34171374368
16	814	140.5	402.96377136478
16	815	141	401.46979176911
16	816	141.5	399.85019987426
16	817	142	398.10211105481
16	818	142.5	396.23203598466
16	819	143	394.31400714884
16	820	143.5	392.46716045616
16	821	144	390.77643854765
16	822	144.5	389.12036510022
16	823	145	387.47584450763
16	824	145.5	385.83705199477
16	825	146	384.30276424187
16	826	146.5	382.98641329214
16	827	147	381.67920253648
16	828	147.5	380.30931906056
16	829	148	378.92468136115
16	830	148.5	377.8080344221
16	831	149	376.81235607267
16	832	149.5	371.14719947556
16	833	150	370.08181867503
16	834	150.5	368.91947172869
16	835	151	367.65148065987
16	836	151.5	366.25892556633
16	837	152	364.7456067188
16	838	152.5	363.13724225996
16	839	153	361.46734587666
16	840	153.5	359.79642599746
16	841	154	358.13199670341
16	842	154.5	356.46569052177
16	843	155	350.28001881991
16	844	155.5	348.59162096359
16	845	156	346.90744367767
16	846	156.5	345.24442377179
16	847	157	343.60400673649
16	848	157.5	342.10143964261
16	849	158	340.79840680492
16	850	158.5	339.60594033499
16	851	159	338.39301276443
16	852	159.5	337.16134197085
16	853	160	336.00911987813
16	854	160.5	335.12435107024
16	855	161	334.2514600779
16	856	161.5	326.2623301452
16	857	162	324.8909735586
16	858	162.5	323.36963866495
16	859	163	321.68651349074
16	860	163.5	319.87005409217
16	861	164	317.90061071023
16	862	164.5	315.84843133024
16	863	165	313.79668168774
16	864	165.5	311.7415753387
16	865	166	309.69254336365
16	866	166.5	307.63700174395
16	867	167	305.58312034878
16	868	167.5	303.52299858585
16	869	168	301.43814986613
16	870	168.5	299.35352171769
16	871	169	297.27231362676
16	872	169.5	295.19251201954
16	873	170	293.10880603582
16	874	170.5	291.02898073437
16	875	171	288.94878480819
16	876	171.5	286.86839526696
16	877	172	284.78670808993
16	878	172.5	282.70487508932
16	879	173	280.62211846574
16	880	173.5	278.54444017814
16	881	174	276.47106472083
16	882	174.5	274.3926673803
16	883	175	272.4064905231
16	884	175.5	270.66951640711
16	885	176	269.04018036006
16	886	176.5	267.40333525627
16	887	177	265.74289666542
16	888	177.5	264.24409676383
16	889	178	263.07422959024
16	890	178.5	262.11008588275
16	891	179	248.69305165155
16	892	179.5	244.74007027545
16	893	180	240.3751787047
16	894	180.5	235.61920870923
16	895	181	230.43333887674
16	896	181.5	224.83150816001
16	897	182	218.79529937078
16	898	182.5	212.45448375555
16	899	183	206.08628426895
16	900	183.5	199.71779648129
16	901	184	193.33215084431
16	902	184.5	186.96664136048
16	903	185	180.59115192459
16	904	185.5	174.22648354574
16	905	186	167.85309071321
16	906	186.5	161.47634790592
16	907	187	155.10480240233
16	908	187.5	148.71387295075
16	909	188	142.31524946756
16	910	188.5	135.91525173733
16	911	189	129.53274090885
16	912	189.5	123.15059856128
16	913	190	116.76410298019
16	914	190.5	110.37376666542
16	915	191	103.97986052086
16	916	191.5	97.597420024291
16	917	192	91.216845784878
16	918	192.5	84.830015229254
15	17	8	1060.4908631501
15	18	8.5	1060.818826568
15	19	9	1061.6233992127
15	20	9.5	1062.8781205701
15	21	10	1064.5599794278
15	22	10.5	1066.7074394249
15	23	11	1069.259586183
15	24	11.5	1072.2002946165
15	25	12	1075.5188212139
15	26	12.5	1079.2274347915
15	27	13	1083.4005209932
15	28	13.5	1088.0762902739
15	29	14	1093.2359843528
15	30	14.5	1098.8651040898
15	31	15	1104.9155003046
15	32	15.5	1111.2851594273
15	33	16	1117.6718882663
15	34	16.5	1124.0370578684
15	35	17	1130.3947168611
15	36	17.5	1136.7740319133
15	37	18	1143.1491379477
15	38	18.5	1149.4887677628
15	39	19	1155.8265824528
15	40	19.5	1162.159703061
15	41	20	1168.5113969865
15	42	20.5	1174.8453844424
15	43	21	1181.1878550236
15	44	21.5	1187.5212504915
15	45	22	1193.8687437467
15	46	22.5	1200.2094159991
15	47	23	1219.1953982041
15	49	23.5	1224.2620099092
15	50	24	1229.3234437579
15	51	24.5	1234.3935349738
15	52	25	1239.4613427631
15	53	25.5	1244.3545252503
15	54	26	1248.6836742864
15	55	26.5	1252.835848069
15	56	27	1256.9646987228
15	57	27.5	1261.1222240317
15	58	28	1264.7952228548
15	59	28.5	1267.6682422317
15	60	29	1270.0369255011
15	61	29.5	1293.1911280344
15	62	30	1296.2804517509
15	63	30.5	1299.6414254274
15	436	31	1302.7404151452
15	437	31.5	1305.4690176291
15	438	32	1307.8265397924
15	439	32.5	1309.8136508291
15	474	33	1311.4633499345
15	475	33.5	1312.8030872737
15	476	34	1313.8662265952
15	477	34.5	1314.6644531464
15	478	35	1315.2574453048
15	479	35.5	1315.6743749128
15	480	36	1315.9585460762
15	481	36.5	1316.1469701261
15	482	37	1316.266331908
15	483	37.5	1316.3428163755
15	484	38	1316.3910125431
15	485	38.5	1316.4211048475
15	486	39	1316.4397648354
15	487	39.5	1316.4514098602
15	488	40	1316.4587235988
15	489	40.5	1316.4633542041
15	490	41	1316.4662029736
15	491	41.5	1316.467990494
15	492	42	1316.4691003141
15	493	42.5	1316.4697857298
15	525	43	1316.470217004
15	526	43.5	1316.4704837493
15	527	44	1316.4706491887
15	528	44.5	1316.4707519505
15	529	45	1316.4708147302
15	530	45.5	1316.4708530099
15	531	46	1316.4708757076
15	532	46.5	1316.4708893364
15	533	47	1316.4708975975
15	534	47.5	1316.47090248
15	535	48	1316.4709032007
15	536	48.5	1316.4709032007
15	537	49	1316.4709032007
15	538	49.5	1316.4709032007
15	539	50	1316.4709032007
15	540	50.5	1316.4709032007
15	541	51	1316.4709032007
15	542	51.5	1316.4709032007
15	543	52	1316.4709032007
15	544	52.5	1316.4709032007
15	637	53	1316.4709032007
15	638	53.5	1316.4709032007
15	639	54	1316.4709032007
15	640	54.5	1316.4709032007
15	641	55	1316.4709032007
15	642	55.5	1316.4709032007
15	643	56	1316.4709032007
15	644	56.5	1316.4709032007
15	645	57	1316.4709032007
15	646	57.5	1316.4709032007
15	647	58	1316.4709032007
15	648	58.5	1316.4709032007
15	649	59	1316.4709032007
15	650	59.5	1316.4709032007
15	651	60	1316.4709032007
15	652	60.5	1316.4709032007
15	653	61	1316.4709032007
15	654	61.5	1316.4709032007
15	655	62	1316.4709032007
15	656	62.5	1316.4709032007
15	658	63	1316.4709032007
15	659	63.5	1316.4709032007
15	660	64	1316.4709032007
15	661	64.5	1316.4709032007
15	662	65	1316.4709032007
15	663	65.5	1316.4709032007
15	664	66	1316.4709032007
15	665	66.5	1316.4709032007
15	666	67	1316.4709032007
15	667	67.5	1316.4709032007
15	668	68	1316.4709032007
15	669	68.5	1316.4709032007
15	670	69	1316.4709032007
15	671	69.5	1316.4709032007
15	672	70	1316.4709032007
15	673	70.5	1316.4709032007
15	674	71	1316.4709032007
15	675	71.5	1316.4709032007
15	676	72	1316.4709032007
15	677	72.5	1316.4709032007
15	678	73	1316.4709032007
15	679	73.5	1316.4709032007
15	680	74	1316.4709032007
15	681	74.5	1316.4709032007
15	682	75	1316.4709032007
15	683	75.5	1316.4709032007
15	684	76	1316.4709032007
15	685	76.5	1316.4709032007
15	686	77	1316.4709032007
15	687	77.5	1316.4709032007
15	688	78	1316.4709032007
15	689	78.5	1316.4709032007
15	690	79	1316.4709032007
15	691	79.5	1316.4709032007
15	692	80	1316.4709032007
15	693	80.5	1316.4709032007
15	694	81	1316.4709032007
15	695	81.5	1316.4709032007
15	696	82	1316.4709032007
15	697	82.5	1316.4709032007
15	698	83	1316.4709032007
15	699	83.5	1316.4709032007
15	700	84	1316.4709032007
15	701	84.5	1316.4709032007
15	702	85	1316.4709032007
15	703	85.5	1316.4709032007
15	704	86	1316.4709032007
15	705	86.5	1316.4709032007
15	706	87	1316.4709032007
15	707	87.5	1316.4709032007
15	708	88	1316.4709032007
15	709	88.5	1316.4709032007
15	710	89	1316.4709032007
15	711	89.5	1316.4709032007
15	712	90	1316.4709032007
15	713	90.5	1316.4709032007
15	714	91	1316.4709032007
15	715	91.5	1316.4709032007
15	716	92	1316.4709032007
15	717	92.5	1316.4709032007
15	718	93	1316.4709032007
15	719	93.5	1316.4709032007
15	720	94	1316.4709032007
15	721	94.5	1316.4709032007
15	722	95	1316.4709032007
15	723	95.5	1316.4709032007
15	724	96	1316.4709032007
15	725	96.5	1316.4709032007
15	726	97	1316.4709032007
15	727	97.5	1316.4709032007
15	728	98	1316.4709032007
15	729	98.5	1316.4709032007
15	730	99	1316.4709032007
15	731	99.5	1316.4709032007
15	732	100	1316.4709032007
15	733	100.5	1316.4709032007
15	734	101	1316.4709032007
15	735	101.5	1316.4709032007
15	736	102	1316.4709032007
15	737	102.5	1316.4709032007
15	738	103	1316.4709032007
15	739	103.5	1316.4709032007
15	740	104	1316.4709032007
15	741	104.5	1316.4709032007
15	742	105	1316.4709032007
15	743	105.5	1316.4709032007
15	744	106	1316.4709032007
15	745	106.5	1316.4709032007
15	746	107	1316.4709032007
15	747	107.5	1316.4709032007
15	748	108	1316.4709032007
15	749	108.5	1316.4709032007
15	750	109	1316.4709032007
15	751	109.5	1316.4709032007
15	752	110	1316.4709032007
15	753	110.5	1316.4709032007
15	754	111	1316.4709032007
15	755	111.5	1316.4709032007
15	756	112	1316.4709032007
15	757	112.5	1316.4709032007
15	758	113	1316.4709032007
15	759	113.5	1316.4709032007
15	760	114	1316.4709032007
15	761	114.5	1316.4709032007
15	762	115	1316.4709032007
15	763	115.5	1316.4709032007
15	764	116	1316.4709032007
15	765	116.5	1316.4709032007
15	766	117	1316.4709032007
15	767	117.5	1316.4709032007
15	768	118	1316.4709032007
15	769	118.5	1316.4709032007
15	770	119	1316.4709032007
15	771	119.5	1316.4709032007
15	772	120	1316.4709032007
15	773	120.5	1316.4709032007
15	774	121	1316.4709032007
15	775	121.5	1316.4709032007
15	776	122	1316.4709032007
15	777	122.5	1316.4709032007
15	778	123	1316.4709032007
15	780	123.5	1316.4710068137
15	781	124	1316.4781847193
15	782	124.5	1316.5346095078
15	783	125	1316.7264962711
15	784	125.5	1317.1128846369
15	785	126	1317.739871191
15	786	126.5	1318.6478026165
15	787	127	1319.8612738868
15	788	127.5	1321.3900152573
15	789	128	1323.2640215346
15	790	128.5	1325.4697802992
15	791	129	1328.0059561115
15	792	129.5	1330.8849395161
15	793	130	1334.1101234757
15	794	130.5	1337.6956429497
15	795	131	1341.5643680465
15	796	131.5	1358.9740708585
15	797	132	1362.5251191718
15	798	132.5	1365.7978870445
15	799	133	1368.9016696279
15	800	133.5	1372.044645057
15	801	134	1375.2458506664
15	802	134.5	1378.3742858468
15	803	135	1381.251417685
15	804	135.5	1384.2603674334
15	805	136	1387.4202774928
15	806	136.5	1390.3914074917
15	807	137	1393.0171650964
15	808	137.5	1395.8471251
15	809	138	1398.8791899428
15	810	138.5	1401.7238957336
15	811	139	1404.2636553623
15	812	139.5	1421.1435657033
15	813	140	1424.904858769
15	814	140.5	1429.0386859056
15	815	141	1433.5206246927
15	816	141.5	1438.3794003772
15	817	142	1443.6236668356
15	818	142.5	1449.233892046
15	819	143	1454.9879785535
15	820	143.5	1460.5285186315
15	821	144	1465.5111673182
15	822	144.5	1470.1293869926
15	823	145	1474.7153897255
15	824	145.5	1479.2854188127
15	825	146	1483.5640200412
15	826	146.5	1487.2348704277
15	827	147	1490.8802319543
15	828	147.5	1494.7003661579
15	829	148	1498.56164482
15	830	148.5	1501.6755893563
15	831	149	1504.4521940715
15	832	149.5	1521.2495556513
15	833	150	1524.604173447
15	834	150.5	1528.2641133943
15	835	151	1532.2567002722
15	836	151.5	1536.641508123
15	837	152	1541.4065708442
15	838	152.5	1546.4709084339
15	839	153	1551.7289946709
15	840	153.5	1556.9903036405
15	841	154	1562.2311753801
15	842	154.5	1567.4779569696
15	843	155	1586.3389267002
15	844	155.5	1591.3501308028
15	845	156	1596.3488081544
15	846	156.5	1601.2846899099
15	847	157	1606.1534858199
15	848	157.5	1610.613139898
15	849	158	1614.4805716633
15	850	158.5	1618.0198398778
15	851	159	1621.6198371149
15	852	159.5	1625.2754646737
15	853	160	1628.6952866408
15	854	160.5	1631.3213010386
15	855	161	1633.9120618037
15	856	161.5	1657.6696123371
15	857	162	1661.7508633068
15	858	162.5	1666.2784599732
15	859	163	1671.2875555771
15	860	163.5	1676.6934629496
15	861	164	1682.5546611171
15	862	164.5	1688.6620872719
15	863	165	1694.7682344985
15	864	165.5	1700.8843715134
15	865	166	1706.9824307759
15	866	166.5	1713.0998631859
15	867	167	1719.2123546543
15	868	167.5	1725.3305525383
15	869	168	1731.4505923285
15	870	168.5	1737.5699846352
15	871	169	1743.6793374182
15	872	169.5	1749.784561491
15	873	170	1755.9012467981
15	874	170.5	1762.0065404249
15	875	171	1768.1129220147
15	876	171.5	1774.2198719583
15	877	172	1780.3306310908
15	878	172.5	1786.4418182862
15	879	173	1792.561118533
15	880	173.5	1798.672609216
15	881	174	1804.7714431237
15	882	174.5	1810.8850489008
15	883	175	1816.7273881263
15	884	175.5	1821.8366974885
15	885	176	1826.6293894709
15	886	176.5	1831.4441693437
15	887	177	1836.3283494587
15	888	177.5	1840.7370693692
15	889	178	1844.1782336603
15	890	178.5	1847.0142623759
15	891	179	1853.6505233865
15	892	179.5	1852.2836739347
15	893	180	1850.7743954729
15	894	180.5	1849.1298911449
15	895	181	1847.3367374051
15	896	181.5	1845.3997540207
15	897	182	1843.3125727543
15	898	182.5	1841.1200654988
15	899	183	1838.9180895345
15	900	183.5	1836.7160138824
15	901	184	1834.5080054431
15	902	184.5	1832.3069596195
15	903	185	1830.1024629595
15	904	185.5	1827.9017079706
15	905	186	1825.6979362675
15	906	186.5	1823.4930062207
15	907	187	1821.2898732811
15	908	187.5	1819.1270790299
15	909	188	1816.9671490451
15	910	188.5	1814.8067551671
15	911	189	1812.6522641969
15	912	189.5	1810.4978976116
15	913	190	1808.3420615416
15	914	190.5	1806.1849289871
15	915	191	1804.026591395
15	916	191.5	1801.8721241661
15	917	192	1799.718286914
15	918	192.5	1797.5623377694

